MODEL 1
REMARK VINA RESULT:      -5.6      0.000      0.000
REMARK  5 active torsions:
REMARK  status: ('A' for Active; 'I' for Inactive)
REMARK    1  A    between atoms: C_2  and  C_5 
REMARK    2  A    between atoms: C_2  and  O_3 
REMARK    3  A    between atoms: C_5  and  C_6 
REMARK    4  A    between atoms: C_6  and  C_7 
REMARK    5  A    between atoms: C_7  and  C_8 
ROOT
HETATM    1  C   LIG     1      17.883  38.844  21.588  1.00  0.00     0.045 C 
HETATM    2  C   LIG     1      17.094  38.265  22.779  1.00  0.00     0.051 C 
HETATM    3  C   LIG     1      16.798  36.781  22.496  1.00  0.00     0.045 C 
ENDROOT
BRANCH   2   4
HETATM    4  C   LIG     1      17.935  38.426  24.078  1.00  0.00     0.037 C 
BRANCH   4   5
HETATM    5  C   LIG     1      17.407  37.600  25.265  1.00  0.00     0.003 C 
BRANCH   5   6
HETATM    6  C   LIG     1      18.566  36.982  26.061  1.00  0.00    -0.000 C 
BRANCH   6   7
HETATM    7  C   LIG     1      18.260  35.553  26.536  1.00  0.00    -0.005 C 
HETATM    8  C   LIG     1      17.354  34.788  25.569  1.00  0.00     0.005 C 
ENDBRANCH   6   7
ENDBRANCH   5   6
ENDBRANCH   4   5
ENDBRANCH   2   4
BRANCH   2   9
HETATM    9  O   LIG     1      15.866  38.944  22.898  1.00  0.00    -0.391 OA
HETATM   10  H   LIG     1      15.175  38.408  22.428  1.00  0.00     0.210 HD
ENDBRANCH   2   9
TORSDOF 5
ENDMDL
MODEL 2
REMARK VINA RESULT:      -5.6      1.751      4.345
REMARK  5 active torsions:
REMARK  status: ('A' for Active; 'I' for Inactive)
REMARK    1  A    between atoms: C_2  and  C_5 
REMARK    2  A    between atoms: C_2  and  O_3 
REMARK    3  A    between atoms: C_5  and  C_6 
REMARK    4  A    between atoms: C_6  and  C_7 
REMARK    5  A    between atoms: C_7  and  C_8 
ROOT
HETATM    1  C   LIG     1      16.760  36.584  22.513  1.00  0.00     0.045 C 
HETATM    2  C   LIG     1      16.563  37.879  23.325  1.00  0.00     0.051 C 
HETATM    3  C   LIG     1      17.319  37.742  24.659  1.00  0.00     0.045 C 
ENDROOT
BRANCH   2   4
HETATM    4  C   LIG     1      17.099  39.087  22.504  1.00  0.00     0.037 C 
BRANCH   4   5
HETATM    5  C   LIG     1      18.541  38.904  22.000  1.00  0.00     0.003 C 
BRANCH   5   6
HETATM    6  C   LIG     1      18.662  39.311  20.523  1.00  0.00    -0.000 C 
BRANCH   6   7
HETATM    7  C   LIG     1      19.651  38.430  19.746  1.00  0.00    -0.005 C 
HETATM    8  C   LIG     1      19.131  37.009  19.524  1.00  0.00     0.005 C 
ENDBRANCH   6   7
ENDBRANCH   5   6
ENDBRANCH   4   5
ENDBRANCH   2   4
BRANCH   2   9
HETATM    9  O   LIG     1      15.194  38.045  23.611  1.00  0.00    -0.391 OA
HETATM   10  H   LIG     1      15.038  39.005  23.813  1.00  0.00     0.210 HD
ENDBRANCH   2   9
TORSDOF 5
ENDMDL
MODEL 3
REMARK VINA RESULT:      -5.3      1.086      1.750
REMARK  5 active torsions:
REMARK  status: ('A' for Active; 'I' for Inactive)
REMARK    1  A    between atoms: C_2  and  C_5 
REMARK    2  A    between atoms: C_2  and  O_3 
REMARK    3  A    between atoms: C_5  and  C_6 
REMARK    4  A    between atoms: C_6  and  C_7 
REMARK    5  A    between atoms: C_7  and  C_8 
ROOT
HETATM    1  C   LIG     1      17.222  38.612  22.148  1.00  0.00     0.045 C 
HETATM    2  C   LIG     1      16.367  37.487  22.763  1.00  0.00     0.051 C 
HETATM    3  C   LIG     1      16.143  36.402  21.696  1.00  0.00     0.045 C 
ENDROOT
BRANCH   2   4
HETATM    4  C   LIG     1      17.102  36.903  24.004  1.00  0.00     0.037 C 
BRANCH   4   5
HETATM    5  C   LIG     1      17.153  35.365  24.028  1.00  0.00     0.003 C 
BRANCH   5   6
HETATM    6  C   LIG     1      17.042  34.835  25.466  1.00  0.00    -0.000 C 
BRANCH   6   7
HETATM    7  C   LIG     1      18.367  34.935  26.236  1.00  0.00    -0.005 C 
HETATM    8  C   LIG     1      18.547  36.285  26.932  1.00  0.00     0.005 C 
ENDBRANCH   6   7
ENDBRANCH   5   6
ENDBRANCH   4   5
ENDBRANCH   2   4
BRANCH   2   9
HETATM    9  O   LIG     1      15.111  38.007  23.132  1.00  0.00    -0.391 OA
HETATM   10  H   LIG     1      14.838  37.571  23.982  1.00  0.00     0.210 HD
ENDBRANCH   2   9
TORSDOF 5
ENDMDL
MODEL 4
REMARK VINA RESULT:      -5.3      2.881      4.426
REMARK  5 active torsions:
REMARK  status: ('A' for Active; 'I' for Inactive)
REMARK    1  A    between atoms: C_2  and  C_5 
REMARK    2  A    between atoms: C_2  and  O_3 
REMARK    3  A    between atoms: C_5  and  C_6 
REMARK    4  A    between atoms: C_6  and  C_7 
REMARK    5  A    between atoms: C_7  and  C_8 
ROOT
HETATM    1  C   LIG     1      19.350  37.347  19.476  1.00  0.00     0.045 C 
HETATM    2  C   LIG     1      19.424  38.867  19.226  1.00  0.00     0.051 C 
HETATM    3  C   LIG     1      18.793  39.169  17.855  1.00  0.00     0.045 C 
ENDROOT
BRANCH   2   4
HETATM    4  C   LIG     1      18.668  39.612  20.363  1.00  0.00     0.037 C 
BRANCH   4   5
HETATM    5  C   LIG     1      18.623  38.835  21.691  1.00  0.00     0.003 C 
BRANCH   5   6
HETATM    6  C   LIG     1      17.205  38.842  22.282  1.00  0.00    -0.000 C 
BRANCH   6   7
HETATM    7  C   LIG     1      16.995  37.734  23.325  1.00  0.00    -0.005 C 
HETATM    8  C   LIG     1      17.422  38.155  24.732  1.00  0.00     0.005 C 
ENDBRANCH   6   7
ENDBRANCH   5   6
ENDBRANCH   4   5
ENDBRANCH   2   4
BRANCH   2   9
HETATM    9  O   LIG     1      20.774  39.266  19.186  1.00  0.00    -0.391 OA
HETATM   10  H   LIG     1      21.122  39.260  20.116  1.00  0.00     0.210 HD
ENDBRANCH   2   9
TORSDOF 5
ENDMDL
MODEL 5
REMARK VINA RESULT:      -5.2      1.521      2.150
REMARK  5 active torsions:
REMARK  status: ('A' for Active; 'I' for Inactive)
REMARK    1  A    between atoms: C_2  and  C_5 
REMARK    2  A    between atoms: C_2  and  O_3 
REMARK    3  A    between atoms: C_5  and  C_6 
REMARK    4  A    between atoms: C_6  and  C_7 
REMARK    5  A    between atoms: C_7  and  C_8 
ROOT
HETATM    1  C   LIG     1      17.038  35.122  22.603  1.00  0.00     0.045 C 
HETATM    2  C   LIG     1      16.455  36.480  22.168  1.00  0.00     0.051 C 
HETATM    3  C   LIG     1      15.078  36.239  21.524  1.00  0.00     0.045 C 
ENDROOT
BRANCH   2   4
HETATM    4  C   LIG     1      16.332  37.408  23.410  1.00  0.00     0.037 C 
BRANCH   4   5
HETATM    5  C   LIG     1      17.661  37.625  24.157  1.00  0.00     0.003 C 
BRANCH   5   6
HETATM    6  C   LIG     1      17.454  37.552  25.677  1.00  0.00    -0.000 C 
BRANCH   6   7
HETATM    7  C   LIG     1      18.462  36.620  26.367  1.00  0.00    -0.005 C 
HETATM    8  C   LIG     1      18.102  35.142  26.217  1.00  0.00     0.005 C 
ENDBRANCH   6   7
ENDBRANCH   5   6
ENDBRANCH   4   5
ENDBRANCH   2   4
BRANCH   2   9
HETATM    9  O   LIG     1      17.298  37.059  21.200  1.00  0.00    -0.391 OA
HETATM   10  H   LIG     1      17.295  38.042  21.341  1.00  0.00     0.210 HD
ENDBRANCH   2   9
TORSDOF 5
ENDMDL
MODEL 6
REMARK VINA RESULT:      -5.0      1.835      4.701
REMARK  5 active torsions:
REMARK  status: ('A' for Active; 'I' for Inactive)
REMARK    1  A    between atoms: C_2  and  C_5 
REMARK    2  A    between atoms: C_2  and  O_3 
REMARK    3  A    between atoms: C_5  and  C_6 
REMARK    4  A    between atoms: C_6  and  C_7 
REMARK    5  A    between atoms: C_7  and  C_8 
ROOT
HETATM    1  C   LIG     1      17.255  36.105  24.630  1.00  0.00     0.045 C 
HETATM    2  C   LIG     1      16.982  37.344  23.754  1.00  0.00     0.051 C 
HETATM    3  C   LIG     1      18.125  38.353  23.963  1.00  0.00     0.045 C 
ENDROOT
BRANCH   2   4
HETATM    4  C   LIG     1      16.890  36.909  22.264  1.00  0.00     0.037 C 
BRANCH   4   5
HETATM    5  C   LIG     1      17.761  37.753  21.316  1.00  0.00     0.003 C 
BRANCH   5   6
HETATM    6  C   LIG     1      18.409  36.872  20.237  1.00  0.00    -0.000 C 
BRANCH   6   7
HETATM    7  C   LIG     1      19.250  37.683  19.239  1.00  0.00    -0.005 C 
HETATM    8  C   LIG     1      19.933  38.890  19.883  1.00  0.00     0.005 C 
ENDBRANCH   6   7
ENDBRANCH   5   6
ENDBRANCH   4   5
ENDBRANCH   2   4
BRANCH   2   9
HETATM    9  O   LIG     1      15.780  37.949  24.168  1.00  0.00    -0.391 OA
HETATM   10  H   LIG     1      16.010  38.766  24.683  1.00  0.00     0.210 HD
ENDBRANCH   2   9
TORSDOF 5
ENDMDL
MODEL 7
REMARK VINA RESULT:      -5.0      2.031      2.700
REMARK  5 active torsions:
REMARK  status: ('A' for Active; 'I' for Inactive)
REMARK    1  A    between atoms: C_2  and  C_5 
REMARK    2  A    between atoms: C_2  and  O_3 
REMARK    3  A    between atoms: C_5  and  C_6 
REMARK    4  A    between atoms: C_6  and  C_7 
REMARK    5  A    between atoms: C_7  and  C_8 
ROOT
HETATM    1  C   LIG     1      15.522  37.194  22.375  1.00  0.00     0.045 C 
HETATM    2  C   LIG     1      16.399  36.087  21.757  1.00  0.00     0.051 C 
HETATM    3  C   LIG     1      17.587  36.748  21.036  1.00  0.00     0.045 C 
ENDROOT
BRANCH   2   4
HETATM    4  C   LIG     1      16.892  35.134  22.883  1.00  0.00     0.037 C 
BRANCH   4   5
HETATM    5  C   LIG     1      17.214  35.851  24.206  1.00  0.00     0.003 C 
BRANCH   5   6
HETATM    6  C   LIG     1      17.458  34.837  25.334  1.00  0.00    -0.000 C 
BRANCH   6   7
HETATM    7  C   LIG     1      18.244  35.438  26.509  1.00  0.00    -0.005 C 
HETATM    8  C   LIG     1      18.575  36.917  26.306  1.00  0.00     0.005 C 
ENDBRANCH   6   7
ENDBRANCH   5   6
ENDBRANCH   4   5
ENDBRANCH   2   4
BRANCH   2   9
HETATM    9  O   LIG     1      15.646  35.376  20.803  1.00  0.00    -0.391 OA
HETATM   10  H   LIG     1      15.007  34.793  21.291  1.00  0.00     0.210 HD
ENDBRANCH   2   9
TORSDOF 5
ENDMDL
MODEL 8
REMARK VINA RESULT:      -4.8      2.422      4.355
REMARK  5 active torsions:
REMARK  status: ('A' for Active; 'I' for Inactive)
REMARK    1  A    between atoms: C_2  and  C_5 
REMARK    2  A    between atoms: C_2  and  O_3 
REMARK    3  A    between atoms: C_5  and  C_6 
REMARK    4  A    between atoms: C_6  and  C_7 
REMARK    5  A    between atoms: C_7  and  C_8 
ROOT
HETATM    1  C   LIG     1      17.088  37.118  24.329  1.00  0.00     0.045 C 
HETATM    2  C   LIG     1      16.618  37.692  22.977  1.00  0.00     0.051 C 
HETATM    3  C   LIG     1      17.317  39.044  22.749  1.00  0.00     0.045 C 
ENDROOT
BRANCH   2   4
HETATM    4  C   LIG     1      16.968  36.687  21.843  1.00  0.00     0.037 C 
BRANCH   4   5
HETATM    5  C   LIG     1      16.577  35.232  22.160  1.00  0.00     0.003 C 
BRANCH   5   6
HETATM    6  C   LIG     1      15.304  34.828  21.400  1.00  0.00    -0.000 C 
BRANCH   6   7
HETATM    7  C   LIG     1      15.606  34.236  20.015  1.00  0.00    -0.005 C 
HETATM    8  C   LIG     1      15.512  32.709  19.990  1.00  0.00     0.005 C 
ENDBRANCH   6   7
ENDBRANCH   5   6
ENDBRANCH   4   5
ENDBRANCH   2   4
BRANCH   2   9
HETATM    9  O   LIG     1      15.229  37.918  23.026  1.00  0.00    -0.391 OA
HETATM   10  H   LIG     1      14.971  38.415  22.206  1.00  0.00     0.210 HD
ENDBRANCH   2   9
TORSDOF 5
ENDMDL
MODEL 9
REMARK VINA RESULT:      -4.8      1.751      3.803
REMARK  5 active torsions:
REMARK  status: ('A' for Active; 'I' for Inactive)
REMARK    1  A    between atoms: C_2  and  C_5 
REMARK    2  A    between atoms: C_2  and  O_3 
REMARK    3  A    between atoms: C_5  and  C_6 
REMARK    4  A    between atoms: C_6  and  C_7 
REMARK    5  A    between atoms: C_7  and  C_8 
ROOT
HETATM    1  C   LIG     1      17.821  36.075  25.596  1.00  0.00     0.045 C 
HETATM    2  C   LIG     1      17.464  37.406  24.905  1.00  0.00     0.051 C 
HETATM    3  C   LIG     1      18.764  38.075  24.426  1.00  0.00     0.045 C 
ENDROOT
BRANCH   2   4
HETATM    4  C   LIG     1      16.511  37.123  23.708  1.00  0.00     0.037 C 
BRANCH   4   5
HETATM    5  C   LIG     1      17.033  37.653  22.361  1.00  0.00     0.003 C 
BRANCH   5   6
HETATM    6  C   LIG     1      17.312  36.496  21.388  1.00  0.00    -0.000 C 
BRANCH   6   7
HETATM    7  C   LIG     1      16.873  35.135  21.948  1.00  0.00    -0.005 C 
HETATM    8  C   LIG     1      15.775  34.476  21.113  1.00  0.00     0.005 C 
ENDBRANCH   6   7
ENDBRANCH   5   6
ENDBRANCH   4   5
ENDBRANCH   2   4
BRANCH   2   9
HETATM    9  O   LIG     1      16.846  38.262  25.837  1.00  0.00    -0.391 OA
HETATM   10  H   LIG     1      15.945  38.495  25.487  1.00  0.00     0.210 HD
ENDBRANCH   2   9
TORSDOF 5
ENDMDL
MODEL 10
REMARK VINA RESULT:      -4.7      2.211      4.708
REMARK  5 active torsions:
REMARK  status: ('A' for Active; 'I' for Inactive)
REMARK    1  A    between atoms: C_2  and  C_5 
REMARK    2  A    between atoms: C_2  and  O_3 
REMARK    3  A    between atoms: C_5  and  C_6 
REMARK    4  A    between atoms: C_6  and  C_7 
REMARK    5  A    between atoms: C_7  and  C_8 
ROOT
HETATM    1  C   LIG     1      16.507  34.812  21.413  1.00  0.00     0.045 C 
HETATM    2  C   LIG     1      16.548  36.178  22.126  1.00  0.00     0.051 C 
HETATM    3  C   LIG     1      17.062  35.967  23.561  1.00  0.00     0.045 C 
ENDROOT
BRANCH   2   4
HETATM    4  C   LIG     1      17.481  37.141  21.338  1.00  0.00     0.037 C 
BRANCH   4   5
HETATM    5  C   LIG     1      17.500  38.578  21.890  1.00  0.00     0.003 C 
BRANCH   5   6
HETATM    6  C   LIG     1      18.768  39.321  21.440  1.00  0.00    -0.000 C 
BRANCH   6   7
HETATM    7  C   LIG     1      18.962  39.289  19.917  1.00  0.00    -0.005 C 
HETATM    8  C   LIG     1      20.342  38.773  19.506  1.00  0.00     0.005 C 
ENDBRANCH   6   7
ENDBRANCH   5   6
ENDBRANCH   4   5
ENDBRANCH   2   4
BRANCH   2   9
HETATM    9  O   LIG     1      15.244  36.704  22.199  1.00  0.00    -0.391 OA
HETATM   10  H   LIG     1      14.891  36.520  23.110  1.00  0.00     0.210 HD
ENDBRANCH   2   9
TORSDOF 5
ENDMDL
MODEL 11
REMARK VINA RESULT:      -4.6      2.883      4.152
REMARK  5 active torsions:
REMARK  status: ('A' for Active; 'I' for Inactive)
REMARK    1  A    between atoms: C_2  and  C_5 
REMARK    2  A    between atoms: C_2  and  O_3 
REMARK    3  A    between atoms: C_5  and  C_6 
REMARK    4  A    between atoms: C_6  and  C_7 
REMARK    5  A    between atoms: C_7  and  C_8 
ROOT
HETATM    1  C   LIG     1      19.065  39.259  21.303  1.00  0.00     0.045 C 
HETATM    2  C   LIG     1      19.201  38.683  19.879  1.00  0.00     0.051 C 
HETATM    3  C   LIG     1      20.694  38.644  19.507  1.00  0.00     0.045 C 
ENDROOT
BRANCH   2   4
HETATM    4  C   LIG     1      18.580  37.258  19.840  1.00  0.00     0.037 C 
BRANCH   4   5
HETATM    5  C   LIG     1      17.579  36.985  20.977  1.00  0.00     0.003 C 
BRANCH   5   6
HETATM    6  C   LIG     1      17.422  35.476  21.219  1.00  0.00    -0.000 C 
BRANCH   6   7
HETATM    7  C   LIG     1      16.447  35.160  22.365  1.00  0.00    -0.005 C 
HETATM    8  C   LIG     1      17.137  35.096  23.728  1.00  0.00     0.005 C 
ENDBRANCH   6   7
ENDBRANCH   5   6
ENDBRANCH   4   5
ENDBRANCH   2   4
BRANCH   2   9
HETATM    9  O   LIG     1      18.543  39.534  18.969  1.00  0.00    -0.391 OA
HETATM   10  H   LIG     1      19.072  39.549  18.129  1.00  0.00     0.210 HD
ENDBRANCH   2   9
TORSDOF 5
ENDMDL
MODEL 12
REMARK VINA RESULT:      -4.6      2.377      3.944
REMARK  5 active torsions:
REMARK  status: ('A' for Active; 'I' for Inactive)
REMARK    1  A    between atoms: C_2  and  C_5 
REMARK    2  A    between atoms: C_2  and  O_3 
REMARK    3  A    between atoms: C_5  and  C_6 
REMARK    4  A    between atoms: C_6  and  C_7 
REMARK    5  A    between atoms: C_7  and  C_8 
ROOT
HETATM    1  C   LIG     1      17.235  35.943  20.656  1.00  0.00     0.045 C 
HETATM    2  C   LIG     1      16.325  36.021  21.897  1.00  0.00     0.051 C 
HETATM    3  C   LIG     1      16.921  35.127  22.999  1.00  0.00     0.045 C 
ENDROOT
BRANCH   2   4
HETATM    4  C   LIG     1      16.229  37.499  22.372  1.00  0.00     0.037 C 
BRANCH   4   5
HETATM    5  C   LIG     1      17.195  37.846  23.520  1.00  0.00     0.003 C 
BRANCH   5   6
HETATM    6  C   LIG     1      18.413  38.622  22.995  1.00  0.00    -0.000 C 
BRANCH   6   7
HETATM    7  C   LIG     1      18.138  39.316  21.652  1.00  0.00    -0.005 C 
HETATM    8  C   LIG     1      19.273  39.130  20.645  1.00  0.00     0.005 C 
ENDBRANCH   6   7
ENDBRANCH   5   6
ENDBRANCH   4   5
ENDBRANCH   2   4
BRANCH   2   9
HETATM    9  O   LIG     1      15.049  35.524  21.570  1.00  0.00    -0.391 OA
HETATM   10  H   LIG     1      15.076  34.535  21.653  1.00  0.00     0.210 HD
ENDBRANCH   2   9
TORSDOF 5
ENDMDL
MODEL 13
REMARK VINA RESULT:      -4.6      9.611     11.486
REMARK  5 active torsions:
REMARK  status: ('A' for Active; 'I' for Inactive)
REMARK    1  A    between atoms: C_2  and  C_5 
REMARK    2  A    between atoms: C_2  and  O_3 
REMARK    3  A    between atoms: C_5  and  C_6 
REMARK    4  A    between atoms: C_6  and  C_7 
REMARK    5  A    between atoms: C_7  and  C_8 
ROOT
HETATM    1  C   LIG     1      14.532  31.769  18.472  1.00  0.00     0.045 C 
HETATM    2  C   LIG     1      14.087  32.278  17.087  1.00  0.00     0.051 C 
HETATM    3  C   LIG     1      14.858  33.571  16.769  1.00  0.00     0.045 C 
ENDROOT
BRANCH   2   4
HETATM    4  C   LIG     1      14.374  31.183  16.020  1.00  0.00     0.037 C 
BRANCH   4   5
HETATM    5  C   LIG     1      13.115  30.439  15.540  1.00  0.00     0.003 C 
BRANCH   5   6
HETATM    6  C   LIG     1      13.441  29.520  14.353  1.00  0.00    -0.000 C 
BRANCH   6   7
HETATM    7  C   LIG     1      14.952  29.385  14.108  1.00  0.00    -0.005 C 
HETATM    8  C   LIG     1      15.361  27.971  13.692  1.00  0.00     0.005 C 
ENDBRANCH   6   7
ENDBRANCH   5   6
ENDBRANCH   4   5
ENDBRANCH   2   4
BRANCH   2   9
HETATM    9  O   LIG     1      12.712  32.583  17.124  1.00  0.00    -0.391 OA
HETATM   10  H   LIG     1      12.208  31.733  17.029  1.00  0.00     0.210 HD
ENDBRANCH   2   9
TORSDOF 5
ENDMDL
MODEL 14
REMARK VINA RESULT:      -4.6      2.909      5.036
REMARK  5 active torsions:
REMARK  status: ('A' for Active; 'I' for Inactive)
REMARK    1  A    between atoms: C_2  and  C_5 
REMARK    2  A    between atoms: C_2  and  O_3 
REMARK    3  A    between atoms: C_5  and  C_6 
REMARK    4  A    between atoms: C_6  and  C_7 
REMARK    5  A    between atoms: C_7  and  C_8 
ROOT
HETATM    1  C   LIG     1      16.990  37.325  22.825  1.00  0.00     0.045 C 
HETATM    2  C   LIG     1      16.682  35.981  22.136  1.00  0.00     0.051 C 
HETATM    3  C   LIG     1      15.256  36.040  21.562  1.00  0.00     0.045 C 
ENDROOT
BRANCH   2   4
HETATM    4  C   LIG     1      17.725  35.732  21.009  1.00  0.00     0.037 C 
BRANCH   4   5
HETATM    5  C   LIG     1      17.895  36.921  20.046  1.00  0.00     0.003 C 
BRANCH   5   6
HETATM    6  C   LIG     1      19.343  37.016  19.542  1.00  0.00    -0.000 C 
BRANCH   6   7
HETATM    7  C   LIG     1      19.901  38.446  19.613  1.00  0.00    -0.005 C 
HETATM    8  C   LIG     1      19.002  39.393  20.409  1.00  0.00     0.005 C 
ENDBRANCH   6   7
ENDBRANCH   5   6
ENDBRANCH   4   5
ENDBRANCH   2   4
BRANCH   2   9
HETATM    9  O   LIG     1      16.730  34.948  23.091  1.00  0.00    -0.391 OA
HETATM   10  H   LIG     1      15.953  34.350  22.933  1.00  0.00     0.210 HD
ENDBRANCH   2   9
TORSDOF 5
ENDMDL
MODEL 15
REMARK VINA RESULT:      -4.5      1.473      3.974
REMARK  5 active torsions:
REMARK  status: ('A' for Active; 'I' for Inactive)
REMARK    1  A    between atoms: C_2  and  C_5 
REMARK    2  A    between atoms: C_2  and  O_3 
REMARK    3  A    between atoms: C_5  and  C_6 
REMARK    4  A    between atoms: C_6  and  C_7 
REMARK    5  A    between atoms: C_7  and  C_8 
ROOT
HETATM    1  C   LIG     1      17.246  35.874  24.274  1.00  0.00     0.045 C 
HETATM    2  C   LIG     1      17.653  37.209  24.929  1.00  0.00     0.051 C 
HETATM    3  C   LIG     1      18.586  36.907  26.115  1.00  0.00     0.045 C 
ENDROOT
BRANCH   2   4
HETATM    4  C   LIG     1      18.365  38.103  23.875  1.00  0.00     0.037 C 
BRANCH   4   5
HETATM    5  C   LIG     1      17.433  39.122  23.194  1.00  0.00     0.003 C 
BRANCH   5   6
HETATM    6  C   LIG     1      17.158  38.723  21.735  1.00  0.00    -0.000 C 
BRANCH   6   7
HETATM    7  C   LIG     1      18.342  37.987  21.091  1.00  0.00    -0.005 C 
HETATM    8  C   LIG     1      17.954  36.618  20.530  1.00  0.00     0.005 C 
ENDBRANCH   6   7
ENDBRANCH   5   6
ENDBRANCH   4   5
ENDBRANCH   2   4
BRANCH   2   9
HETATM    9  O   LIG     1      16.503  37.852  25.427  1.00  0.00    -0.391 OA
HETATM   10  H   LIG     1      16.794  38.677  25.897  1.00  0.00     0.210 HD
ENDBRANCH   2   9
TORSDOF 5
ENDMDL
MODEL 16
REMARK VINA RESULT:      -4.4      2.979      4.621
REMARK  5 active torsions:
REMARK  status: ('A' for Active; 'I' for Inactive)
REMARK    1  A    between atoms: C_2  and  C_5 
REMARK    2  A    between atoms: C_2  and  O_3 
REMARK    3  A    between atoms: C_5  and  C_6 
REMARK    4  A    between atoms: C_6  and  C_7 
REMARK    5  A    between atoms: C_7  and  C_8 
ROOT
HETATM    1  C   LIG     1      15.689  33.750  20.498  1.00  0.00     0.045 C 
HETATM    2  C   LIG     1      15.921  35.173  21.041  1.00  0.00     0.051 C 
HETATM    3  C   LIG     1      16.561  35.068  22.437  1.00  0.00     0.045 C 
ENDROOT
BRANCH   2   4
HETATM    4  C   LIG     1      16.847  35.952  20.063  1.00  0.00     0.037 C 
BRANCH   4   5
HETATM    5  C   LIG     1      18.123  36.504  20.723  1.00  0.00     0.003 C 
BRANCH   5   6
HETATM    6  C   LIG     1      18.094  38.039  20.774  1.00  0.00    -0.000 C 
BRANCH   6   7
HETATM    7  C   LIG     1      17.910  38.579  22.200  1.00  0.00    -0.005 C 
HETATM    8  C   LIG     1      16.442  38.805  22.564  1.00  0.00     0.005 C 
ENDBRANCH   6   7
ENDBRANCH   5   6
ENDBRANCH   4   5
ENDBRANCH   2   4
BRANCH   2   9
HETATM    9  O   LIG     1      14.681  35.827  21.175  1.00  0.00    -0.391 OA
HETATM   10  H   LIG     1      14.411  35.777  22.129  1.00  0.00     0.210 HD
ENDBRANCH   2   9
TORSDOF 5
ENDMDL
MODEL 17
REMARK VINA RESULT:      -4.3     12.424     13.403
REMARK  5 active torsions:
REMARK  status: ('A' for Active; 'I' for Inactive)
REMARK    1  A    between atoms: C_2  and  C_5 
REMARK    2  A    between atoms: C_2  and  O_3 
REMARK    3  A    between atoms: C_5  and  C_6 
REMARK    4  A    between atoms: C_6  and  C_7 
REMARK    5  A    between atoms: C_7  and  C_8 
ROOT
HETATM    1  C   LIG     1      19.536  34.629  10.489  1.00  0.00     0.045 C 
HETATM    2  C   LIG     1      19.935  33.470  11.424  1.00  0.00     0.051 C 
HETATM    3  C   LIG     1      20.839  32.499  10.644  1.00  0.00     0.045 C 
ENDROOT
BRANCH   2   4
HETATM    4  C   LIG     1      20.677  34.044  12.665  1.00  0.00     0.037 C 
BRANCH   4   5
HETATM    5  C   LIG     1      21.917  34.886  12.313  1.00  0.00     0.003 C 
BRANCH   5   6
HETATM    6  C   LIG     1      22.854  35.015  13.524  1.00  0.00    -0.000 C 
BRANCH   6   7
HETATM    7  C   LIG     1      23.901  36.124  13.345  1.00  0.00    -0.005 C 
HETATM    8  C   LIG     1      23.819  36.801  11.976  1.00  0.00     0.005 C 
ENDBRANCH   6   7
ENDBRANCH   5   6
ENDBRANCH   4   5
ENDBRANCH   2   4
BRANCH   2   9
HETATM    9  O   LIG     1      18.778  32.772  11.820  1.00  0.00    -0.391 OA
HETATM   10  H   LIG     1      18.756  32.755  12.813  1.00  0.00     0.210 HD
ENDBRANCH   2   9
TORSDOF 5
ENDMDL
MODEL 18
REMARK VINA RESULT:      -4.1      8.714     10.654
REMARK  5 active torsions:
REMARK  status: ('A' for Active; 'I' for Inactive)
REMARK    1  A    between atoms: C_2  and  C_5 
REMARK    2  A    between atoms: C_2  and  O_3 
REMARK    3  A    between atoms: C_5  and  C_6 
REMARK    4  A    between atoms: C_6  and  C_7 
REMARK    5  A    between atoms: C_7  and  C_8 
ROOT
HETATM    1  C   LIG     1      13.308  31.978  16.961  1.00  0.00     0.045 C 
HETATM    2  C   LIG     1      14.671  32.578  17.357  1.00  0.00     0.051 C 
HETATM    3  C   LIG     1      14.944  32.244  18.834  1.00  0.00     0.045 C 
ENDROOT
BRANCH   2   4
HETATM    4  C   LIG     1      15.779  31.987  16.439  1.00  0.00     0.037 C 
BRANCH   4   5
HETATM    5  C   LIG     1      15.823  32.615  15.034  1.00  0.00     0.003 C 
BRANCH   5   6
HETATM    6  C   LIG     1      15.732  31.534  13.947  1.00  0.00    -0.000 C 
BRANCH   6   7
HETATM    7  C   LIG     1      15.459  30.136  14.525  1.00  0.00    -0.005 C 
HETATM    8  C   LIG     1      14.046  29.636  14.224  1.00  0.00     0.005 C 
ENDBRANCH   6   7
ENDBRANCH   5   6
ENDBRANCH   4   5
ENDBRANCH   2   4
BRANCH   2   9
HETATM    9  O   LIG     1      14.617  33.979  17.225  1.00  0.00    -0.391 OA
HETATM   10  H   LIG     1      14.641  34.373  18.137  1.00  0.00     0.210 HD
ENDBRANCH   2   9
TORSDOF 5
ENDMDL
MODEL 19
REMARK VINA RESULT:      -4.1      8.468     10.620
REMARK  5 active torsions:
REMARK  status: ('A' for Active; 'I' for Inactive)
REMARK    1  A    between atoms: C_2  and  C_5 
REMARK    2  A    between atoms: C_2  and  O_3 
REMARK    3  A    between atoms: C_5  and  C_6 
REMARK    4  A    between atoms: C_6  and  C_7 
REMARK    5  A    between atoms: C_7  and  C_8 
ROOT
HETATM    1  C   LIG     1      13.500  31.747  16.777  1.00  0.00     0.045 C 
HETATM    2  C   LIG     1      14.645  32.712  17.141  1.00  0.00     0.051 C 
HETATM    3  C   LIG     1      15.087  32.425  18.587  1.00  0.00     0.045 C 
ENDROOT
BRANCH   2   4
HETATM    4  C   LIG     1      15.825  32.506  16.149  1.00  0.00     0.037 C 
BRANCH   4   5
HETATM    5  C   LIG     1      15.446  31.703  14.892  1.00  0.00     0.003 C 
BRANCH   5   6
HETATM    6  C   LIG     1      16.216  32.212  13.663  1.00  0.00    -0.000 C 
BRANCH   6   7
HETATM    7  C   LIG     1      17.359  33.169  14.037  1.00  0.00    -0.005 C 
HETATM    8  C   LIG     1      17.826  34.022  12.857  1.00  0.00     0.005 C 
ENDBRANCH   6   7
ENDBRANCH   5   6
ENDBRANCH   4   5
ENDBRANCH   2   4
BRANCH   2   9
HETATM    9  O   LIG     1      14.173  34.037  17.080  1.00  0.00    -0.391 OA
HETATM   10  H   LIG     1      14.086  34.373  18.011  1.00  0.00     0.210 HD
ENDBRANCH   2   9
TORSDOF 5
ENDMDL
MODEL 20
REMARK VINA RESULT:      -4.0      2.420      3.581
REMARK  5 active torsions:
REMARK  status: ('A' for Active; 'I' for Inactive)
REMARK    1  A    between atoms: C_2  and  C_5 
REMARK    2  A    between atoms: C_2  and  O_3 
REMARK    3  A    between atoms: C_5  and  C_6 
REMARK    4  A    between atoms: C_6  and  C_7 
REMARK    5  A    between atoms: C_7  and  C_8 
ROOT
HETATM    1  C   LIG     1      17.131  34.994  21.259  1.00  0.00     0.045 C 
HETATM    2  C   LIG     1      15.629  35.264  21.041  1.00  0.00     0.051 C 
HETATM    3  C   LIG     1      14.836  34.033  21.515  1.00  0.00     0.045 C 
ENDROOT
BRANCH   2   4
HETATM    4  C   LIG     1      15.215  36.533  21.840  1.00  0.00     0.037 C 
BRANCH   4   5
HETATM    5  C   LIG     1      16.407  37.364  22.347  1.00  0.00     0.003 C 
BRANCH   5   6
HETATM    6  C   LIG     1      16.379  37.485  23.878  1.00  0.00    -0.000 C 
BRANCH   6   7
HETATM    7  C   LIG     1      17.761  37.803  24.471  1.00  0.00    -0.005 C 
HETATM    8  C   LIG     1      18.048  37.023  25.755  1.00  0.00     0.005 C 
ENDBRANCH   6   7
ENDBRANCH   5   6
ENDBRANCH   4   5
ENDBRANCH   2   4
BRANCH   2   9
HETATM    9  O   LIG     1      15.384  35.443  19.667  1.00  0.00    -0.391 OA
HETATM   10  H   LIG     1      15.733  34.646  19.188  1.00  0.00     0.210 HD
ENDBRANCH   2   9
TORSDOF 5
ENDMDL
