REMARK  2 active torsions:
REMARK  status: ('A' for Active; 'I' for Inactive)
REMARK    1  A    between atoms: C_2  and  C_4 
REMARK    2  A    between atoms: C_4  and  C_5 
ROOT
HETATM    1  C   LIG     1       2.513   0.274   0.543  1.00  0.00     0.026 C 
HETATM    2  C   LIG     1       1.177   0.595  -0.125  1.00  0.00     0.078 C 
HETATM    3 CL   LIG     1       1.323   0.311  -1.885  1.00  0.00    -0.125 Cl
ENDROOT
BRANCH   2   4
HETATM    4  C   LIG     1       0.048  -0.263   0.473  1.00  0.00     0.019 C 
BRANCH   4   5
HETATM    5  C   LIG     1      -1.337   0.188  -0.014  1.00  0.00    -0.003 C 
HETATM    6  C   LIG     1      -2.443  -0.647   0.624  1.00  0.00     0.005 C 
ENDBRANCH   4   5
ENDBRANCH   2   4
TORSDOF 2
