MODEL 1
REMARK VINA RESULT:      -5.6      0.000      0.000
REMARK  4 active torsions:
REMARK  status: ('A' for Active; 'I' for Inactive)
REMARK    1  A    between atoms: C_2  and  C_5 
REMARK    2  A    between atoms: C_2  and  O_4 
REMARK    3  A    between atoms: C_5  and  C_6 
REMARK    4  A    between atoms: C_6  and  C_7 
ROOT
HETATM    1  C   LIG     1      16.853  36.350  23.117  1.00  0.00     0.045 C 
HETATM    2  C   LIG     1      16.617  37.775  23.663  1.00  0.00     0.051 C 
HETATM    3  C   LIG     1      17.421  38.783  22.817  1.00  0.00     0.045 C 
ENDROOT
BRANCH   2   4
HETATM    4  C   LIG     1      17.078  37.889  25.140  1.00  0.00     0.037 C 
BRANCH   4   5
HETATM    5  C   LIG     1      18.446  37.236  25.417  1.00  0.00     0.002 C 
BRANCH   5   6
HETATM    6  C   LIG     1      18.417  36.307  26.642  1.00  0.00    -0.004 C 
HETATM    7  C   LIG     1      18.093  34.858  26.280  1.00  0.00     0.005 C 
ENDBRANCH   5   6
ENDBRANCH   4   5
ENDBRANCH   2   4
BRANCH   2   8
HETATM    8  O   LIG     1      15.247  38.097  23.590  1.00  0.00    -0.391 OA
HETATM    9  H   LIG     1      14.952  37.971  22.649  1.00  0.00     0.210 HD
ENDBRANCH   2   8
TORSDOF 4
ENDMDL
MODEL 2
REMARK VINA RESULT:      -5.2      1.782      4.231
REMARK  4 active torsions:
REMARK  status: ('A' for Active; 'I' for Inactive)
REMARK    1  A    between atoms: C_2  and  C_5 
REMARK    2  A    between atoms: C_2  and  O_4 
REMARK    3  A    between atoms: C_5  and  C_6 
REMARK    4  A    between atoms: C_6  and  C_7 
ROOT
HETATM    1  C   LIG     1      17.194  37.788  24.876  1.00  0.00     0.045 C 
HETATM    2  C   LIG     1      16.553  37.818  23.471  1.00  0.00     0.051 C 
HETATM    3  C   LIG     1      16.745  36.445  22.795  1.00  0.00     0.045 C 
ENDROOT
BRANCH   2   4
HETATM    4  C   LIG     1      17.211  38.904  22.581  1.00  0.00     0.037 C 
BRANCH   4   5
HETATM    5  C   LIG     1      18.093  38.333  21.453  1.00  0.00     0.002 C 
BRANCH   5   6
HETATM    6  C   LIG     1      18.800  39.434  20.646  1.00  0.00    -0.004 C 
HETATM    7  C   LIG     1      19.990  38.909  19.842  1.00  0.00     0.005 C 
ENDBRANCH   5   6
ENDBRANCH   4   5
ENDBRANCH   2   4
BRANCH   2   8
HETATM    8  O   LIG     1      15.175  38.094  23.577  1.00  0.00    -0.391 OA
HETATM    9  H   LIG     1      14.700  37.233  23.722  1.00  0.00     0.210 HD
ENDBRANCH   2   8
TORSDOF 4
ENDMDL
MODEL 3
REMARK VINA RESULT:      -4.9      1.573      3.741
REMARK  4 active torsions:
REMARK  status: ('A' for Active; 'I' for Inactive)
REMARK    1  A    between atoms: C_2  and  C_5 
REMARK    2  A    between atoms: C_2  and  O_4 
REMARK    3  A    between atoms: C_5  and  C_6 
REMARK    4  A    between atoms: C_6  and  C_7 
ROOT
HETATM    1  C   LIG     1      17.346  38.812  22.732  1.00  0.00     0.045 C 
HETATM    2  C   LIG     1      16.644  37.782  23.644  1.00  0.00     0.051 C 
HETATM    3  C   LIG     1      17.229  37.880  25.068  1.00  0.00     0.045 C 
ENDROOT
BRANCH   2   4
HETATM    4  C   LIG     1      16.855  36.337  23.121  1.00  0.00     0.037 C 
BRANCH   4   5
HETATM    5  C   LIG     1      17.238  36.266  21.629  1.00  0.00     0.002 C 
BRANCH   5   6
HETATM    6  C   LIG     1      16.290  35.366  20.821  1.00  0.00    -0.004 C 
HETATM    7  C   LIG     1      14.821  35.560  21.198  1.00  0.00     0.005 C 
ENDBRANCH   5   6
ENDBRANCH   4   5
ENDBRANCH   2   4
BRANCH   2   8
HETATM    8  O   LIG     1      15.261  38.047  23.692  1.00  0.00    -0.391 OA
HETATM    9  H   LIG     1      15.003  38.486  22.838  1.00  0.00     0.210 HD
ENDBRANCH   2   8
TORSDOF 4
ENDMDL
MODEL 4
REMARK VINA RESULT:      -4.7      1.294      1.907
REMARK  4 active torsions:
REMARK  status: ('A' for Active; 'I' for Inactive)
REMARK    1  A    between atoms: C_2  and  C_5 
REMARK    2  A    between atoms: C_2  and  O_4 
REMARK    3  A    between atoms: C_5  and  C_6 
REMARK    4  A    between atoms: C_6  and  C_7 
ROOT
HETATM    1  C   LIG     1      16.990  35.111  22.935  1.00  0.00     0.045 C 
HETATM    2  C   LIG     1      16.767  36.488  22.271  1.00  0.00     0.051 C 
HETATM    3  C   LIG     1      17.563  36.550  20.951  1.00  0.00     0.045 C 
ENDROOT
BRANCH   2   4
HETATM    4  C   LIG     1      17.250  37.636  23.195  1.00  0.00     0.037 C 
BRANCH   4   5
HETATM    5  C   LIG     1      16.948  37.402  24.688  1.00  0.00     0.002 C 
BRANCH   5   6
HETATM    6  C   LIG     1      18.223  37.355  25.545  1.00  0.00    -0.004 C 
HETATM    7  C   LIG     1      18.247  36.168  26.508  1.00  0.00     0.005 C 
ENDBRANCH   5   6
ENDBRANCH   4   5
ENDBRANCH   2   4
BRANCH   2   8
HETATM    8  O   LIG     1      15.398  36.673  21.996  1.00  0.00    -0.391 OA
HETATM    9  H   LIG     1      14.888  36.464  22.824  1.00  0.00     0.210 HD
ENDBRANCH   2   8
TORSDOF 4
ENDMDL
MODEL 5
REMARK VINA RESULT:      -4.5      1.870      2.622
REMARK  4 active torsions:
REMARK  status: ('A' for Active; 'I' for Inactive)
REMARK    1  A    between atoms: C_2  and  C_5 
REMARK    2  A    between atoms: C_2  and  O_4 
REMARK    3  A    between atoms: C_5  and  C_6 
REMARK    4  A    between atoms: C_6  and  C_7 
ROOT
HETATM    1  C   LIG     1      15.967  34.601  20.669  1.00  0.00     0.045 C 
HETATM    2  C   LIG     1      16.476  35.640  21.692  1.00  0.00     0.051 C 
HETATM    3  C   LIG     1      17.585  36.492  21.042  1.00  0.00     0.045 C 
ENDROOT
BRANCH   2   4
HETATM    4  C   LIG     1      17.059  34.946  22.950  1.00  0.00     0.037 C 
BRANCH   4   5
HETATM    5  C   LIG     1      17.199  35.880  24.167  1.00  0.00     0.002 C 
BRANCH   5   6
HETATM    6  C   LIG     1      17.528  35.116  25.460  1.00  0.00    -0.004 C 
HETATM    7  C   LIG     1      18.195  35.996  26.517  1.00  0.00     0.005 C 
ENDBRANCH   5   6
ENDBRANCH   4   5
ENDBRANCH   2   4
BRANCH   2   8
HETATM    8  O   LIG     1      15.418  36.482  22.089  1.00  0.00    -0.391 OA
HETATM    9  H   LIG     1      14.586  36.155  21.653  1.00  0.00     0.210 HD
ENDBRANCH   2   8
TORSDOF 4
ENDMDL
MODEL 6
REMARK VINA RESULT:      -4.5      3.468      4.656
REMARK  4 active torsions:
REMARK  status: ('A' for Active; 'I' for Inactive)
REMARK    1  A    between atoms: C_2  and  C_5 
REMARK    2  A    between atoms: C_2  and  O_4 
REMARK    3  A    between atoms: C_5  and  C_6 
REMARK    4  A    between atoms: C_6  and  C_7 
ROOT
HETATM    1  C   LIG     1      18.677  37.249  19.522  1.00  0.00     0.045 C 
HETATM    2  C   LIG     1      19.221  38.690  19.633  1.00  0.00     0.051 C 
HETATM    3  C   LIG     1      20.754  38.668  19.469  1.00  0.00     0.045 C 
ENDROOT
BRANCH   2   4
HETATM    4  C   LIG     1      18.879  39.310  21.013  1.00  0.00     0.037 C 
BRANCH   4   5
HETATM    5  C   LIG     1      17.618  38.713  21.668  1.00  0.00     0.002 C 
BRANCH   5   6
HETATM    6  C   LIG     1      17.793  38.482  23.178  1.00  0.00    -0.004 C 
HETATM    7  C   LIG     1      16.709  37.582  23.771  1.00  0.00     0.005 C 
ENDBRANCH   5   6
ENDBRANCH   4   5
ENDBRANCH   2   4
BRANCH   2   8
HETATM    8  O   LIG     1      18.657  39.495  18.623  1.00  0.00    -0.391 OA
HETATM    9  H   LIG     1      19.025  40.413  18.722  1.00  0.00     0.210 HD
ENDBRANCH   2   8
TORSDOF 4
ENDMDL
MODEL 7
REMARK VINA RESULT:      -4.5      3.049      4.825
REMARK  4 active torsions:
REMARK  status: ('A' for Active; 'I' for Inactive)
REMARK    1  A    between atoms: C_2  and  C_5 
REMARK    2  A    between atoms: C_2  and  O_4 
REMARK    3  A    between atoms: C_5  and  C_6 
REMARK    4  A    between atoms: C_6  and  C_7 
ROOT
HETATM    1  C   LIG     1      16.984  35.209  22.783  1.00  0.00     0.045 C 
HETATM    2  C   LIG     1      16.491  36.157  21.668  1.00  0.00     0.051 C 
HETATM    3  C   LIG     1      16.141  35.330  20.415  1.00  0.00     0.045 C 
ENDROOT
BRANCH   2   4
HETATM    4  C   LIG     1      17.585  37.190  21.290  1.00  0.00     0.037 C 
BRANCH   4   5
HETATM    5  C   LIG     1      18.450  36.767  20.087  1.00  0.00     0.002 C 
BRANCH   5   6
HETATM    6  C   LIG     1      19.195  37.953  19.452  1.00  0.00    -0.004 C 
HETATM    7  C   LIG     1      19.119  39.223  20.299  1.00  0.00     0.005 C 
ENDBRANCH   5   6
ENDBRANCH   4   5
ENDBRANCH   2   4
BRANCH   2   8
HETATM    8  O   LIG     1      15.344  36.852  22.101  1.00  0.00    -0.391 OA
HETATM    9  H   LIG     1      15.506  37.163  23.031  1.00  0.00     0.210 HD
ENDBRANCH   2   8
TORSDOF 4
ENDMDL
MODEL 8
REMARK VINA RESULT:      -4.4      2.645      4.518
REMARK  4 active torsions:
REMARK  status: ('A' for Active; 'I' for Inactive)
REMARK    1  A    between atoms: C_2  and  C_5 
REMARK    2  A    between atoms: C_2  and  O_4 
REMARK    3  A    between atoms: C_5  and  C_6 
REMARK    4  A    between atoms: C_6  and  C_7 
ROOT
HETATM    1  C   LIG     1      15.506  37.797  22.745  1.00  0.00     0.045 C 
HETATM    2  C   LIG     1      16.992  37.384  22.817  1.00  0.00     0.051 C 
HETATM    3  C   LIG     1      17.663  38.103  24.005  1.00  0.00     0.045 C 
ENDROOT
BRANCH   2   4
HETATM    4  C   LIG     1      17.743  37.771  21.516  1.00  0.00     0.037 C 
BRANCH   4   5
HETATM    5  C   LIG     1      17.952  36.593  20.545  1.00  0.00     0.002 C 
BRANCH   5   6
HETATM    6  C   LIG     1      19.085  36.855  19.539  1.00  0.00    -0.004 C 
HETATM    7  C   LIG     1      19.599  38.294  19.585  1.00  0.00     0.005 C 
ENDBRANCH   5   6
ENDBRANCH   4   5
ENDBRANCH   2   4
BRANCH   2   8
HETATM    8  O   LIG     1      17.095  35.990  23.000  1.00  0.00    -0.391 OA
HETATM    9  H   LIG     1      17.346  35.584  22.128  1.00  0.00     0.210 HD
ENDBRANCH   2   8
TORSDOF 4
ENDMDL
MODEL 9
REMARK VINA RESULT:      -4.4      1.606      3.628
REMARK  4 active torsions:
REMARK  status: ('A' for Active; 'I' for Inactive)
REMARK    1  A    between atoms: C_2  and  C_5 
REMARK    2  A    between atoms: C_2  and  O_4 
REMARK    3  A    between atoms: C_5  and  C_6 
REMARK    4  A    between atoms: C_6  and  C_7 
ROOT
HETATM    1  C   LIG     1      18.640  38.199  24.175  1.00  0.00     0.045 C 
HETATM    2  C   LIG     1      17.695  37.296  24.997  1.00  0.00     0.051 C 
HETATM    3  C   LIG     1      18.484  36.660  26.160  1.00  0.00     0.045 C 
ENDROOT
BRANCH   2   4
HETATM    4  C   LIG     1      17.104  36.162  24.120  1.00  0.00     0.037 C 
BRANCH   4   5
HETATM    5  C   LIG     1      16.689  36.619  22.708  1.00  0.00     0.002 C 
BRANCH   5   6
HETATM    6  C   LIG     1      17.184  35.663  21.611  1.00  0.00    -0.004 C 
HETATM    7  C   LIG     1      16.125  34.645  21.188  1.00  0.00     0.005 C 
ENDBRANCH   5   6
ENDBRANCH   4   5
ENDBRANCH   2   4
BRANCH   2   8
HETATM    8  O   LIG     1      16.634  38.062  25.521  1.00  0.00    -0.391 OA
HETATM    9  H   LIG     1      16.725  38.990  25.174  1.00  0.00     0.210 HD
ENDBRANCH   2   8
TORSDOF 4
ENDMDL
MODEL 10
REMARK VINA RESULT:      -4.4      8.691     10.542
REMARK  4 active torsions:
REMARK  status: ('A' for Active; 'I' for Inactive)
REMARK    1  A    between atoms: C_2  and  C_5 
REMARK    2  A    between atoms: C_2  and  O_4 
REMARK    3  A    between atoms: C_5  and  C_6 
REMARK    4  A    between atoms: C_6  and  C_7 
ROOT
HETATM    1  C   LIG     1      15.790  32.756  16.045  1.00  0.00     0.045 C 
HETATM    2  C   LIG     1      14.696  33.010  17.105  1.00  0.00     0.051 C 
HETATM    3  C   LIG     1      15.190  32.507  18.476  1.00  0.00     0.045 C 
ENDROOT
BRANCH   2   4
HETATM    4  C   LIG     1      13.386  32.261  16.745  1.00  0.00     0.037 C 
BRANCH   4   5
HETATM    5  C   LIG     1      13.562  30.737  16.597  1.00  0.00     0.002 C 
BRANCH   5   6
HETATM    6  C   LIG     1      13.155  30.230  15.203  1.00  0.00    -0.004 C 
HETATM    7  C   LIG     1      14.352  29.811  14.351  1.00  0.00     0.005 C 
ENDBRANCH   5   6
ENDBRANCH   4   5
ENDBRANCH   2   4
BRANCH   2   8
HETATM    8  O   LIG     1      14.419  34.389  17.188  1.00  0.00    -0.391 OA
HETATM    9  H   LIG     1      13.560  34.559  16.718  1.00  0.00     0.210 HD
ENDBRANCH   2   8
TORSDOF 4
ENDMDL
MODEL 11
REMARK VINA RESULT:      -4.0      8.773     10.667
REMARK  4 active torsions:
REMARK  status: ('A' for Active; 'I' for Inactive)
REMARK    1  A    between atoms: C_2  and  C_5 
REMARK    2  A    between atoms: C_2  and  O_4 
REMARK    3  A    between atoms: C_5  and  C_6 
REMARK    4  A    between atoms: C_6  and  C_7 
ROOT
HETATM    1  C   LIG     1      14.918  34.111  16.900  1.00  0.00     0.045 C 
HETATM    2  C   LIG     1      14.399  32.676  17.134  1.00  0.00     0.051 C 
HETATM    3  C   LIG     1      14.909  32.167  18.498  1.00  0.00     0.045 C 
ENDROOT
BRANCH   2   4
HETATM    4  C   LIG     1      14.902  31.714  16.027  1.00  0.00     0.037 C 
BRANCH   4   5
HETATM    5  C   LIG     1      16.054  32.289  15.179  1.00  0.00     0.002 C 
BRANCH   5   6
HETATM    6  C   LIG     1      15.940  31.905  13.695  1.00  0.00    -0.004 C 
HETATM    7  C   LIG     1      15.307  30.530  13.484  1.00  0.00     0.005 C 
ENDBRANCH   5   6
ENDBRANCH   4   5
ENDBRANCH   2   4
BRANCH   2   8
HETATM    8  O   LIG     1      12.990  32.669  17.133  1.00  0.00    -0.391 OA
HETATM    9  H   LIG     1      12.687  31.852  17.612  1.00  0.00     0.210 HD
ENDBRANCH   2   8
TORSDOF 4
ENDMDL
MODEL 12
REMARK VINA RESULT:      -4.0      3.303      4.813
REMARK  4 active torsions:
REMARK  status: ('A' for Active; 'I' for Inactive)
REMARK    1  A    between atoms: C_2  and  C_5 
REMARK    2  A    between atoms: C_2  and  O_4 
REMARK    3  A    between atoms: C_5  and  C_6 
REMARK    4  A    between atoms: C_6  and  C_7 
ROOT
HETATM    1  C   LIG     1      15.592  32.838  20.302  1.00  0.00     0.045 C 
HETATM    2  C   LIG     1      15.485  34.325  20.705  1.00  0.00     0.051 C 
HETATM    3  C   LIG     1      15.456  35.196  19.433  1.00  0.00     0.045 C 
ENDROOT
BRANCH   2   4
HETATM    4  C   LIG     1      16.696  34.756  21.573  1.00  0.00     0.037 C 
BRANCH   4   5
HETATM    5  C   LIG     1      16.512  36.122  22.263  1.00  0.00     0.002 C 
BRANCH   5   6
HETATM    6  C   LIG     1      17.393  37.218  21.642  1.00  0.00    -0.004 C 
HETATM    7  C   LIG     1      17.179  38.587  22.286  1.00  0.00     0.005 C 
ENDBRANCH   5   6
ENDBRANCH   4   5
ENDBRANCH   2   4
BRANCH   2   8
HETATM    8  O   LIG     1      14.302  34.539  21.441  1.00  0.00    -0.391 OA
HETATM    9  H   LIG     1      14.540  35.040  22.266  1.00  0.00     0.210 HD
ENDBRANCH   2   8
TORSDOF 4
ENDMDL
MODEL 13
REMARK VINA RESULT:      -4.0      9.594     11.363
REMARK  4 active torsions:
REMARK  status: ('A' for Active; 'I' for Inactive)
REMARK    1  A    between atoms: C_2  and  C_5 
REMARK    2  A    between atoms: C_2  and  O_4 
REMARK    3  A    between atoms: C_5  and  C_6 
REMARK    4  A    between atoms: C_6  and  C_7 
ROOT
HETATM    1  C   LIG     1      12.319  32.304  16.683  1.00  0.00     0.045 C 
HETATM    2  C   LIG     1      13.766  31.829  16.938  1.00  0.00     0.051 C 
HETATM    3  C   LIG     1      14.722  33.034  16.834  1.00  0.00     0.045 C 
ENDROOT
BRANCH   2   4
HETATM    4  C   LIG     1      14.195  30.764  15.895  1.00  0.00     0.037 C 
BRANCH   4   5
HETATM    5  C   LIG     1      15.238  31.273  14.881  1.00  0.00     0.002 C 
BRANCH   5   6
HETATM    6  C   LIG     1      15.299  30.403  13.615  1.00  0.00    -0.004 C 
HETATM    7  C   LIG     1      15.187  28.908  13.915  1.00  0.00     0.005 C 
ENDBRANCH   5   6
ENDBRANCH   4   5
ENDBRANCH   2   4
BRANCH   2   8
HETATM    8  O   LIG     1      13.867  31.266  18.227  1.00  0.00    -0.391 OA
HETATM    9  H   LIG     1      12.945  31.109  18.566  1.00  0.00     0.210 HD
ENDBRANCH   2   8
TORSDOF 4
ENDMDL
MODEL 14
REMARK VINA RESULT:      -4.0      1.660      2.334
REMARK  4 active torsions:
REMARK  status: ('A' for Active; 'I' for Inactive)
REMARK    1  A    between atoms: C_2  and  C_5 
REMARK    2  A    between atoms: C_2  and  O_4 
REMARK    3  A    between atoms: C_5  and  C_6 
REMARK    4  A    between atoms: C_6  and  C_7 
ROOT
HETATM    1  C   LIG     1      17.645  38.224  21.613  1.00  0.00     0.045 C 
HETATM    2  C   LIG     1      17.329  38.532  23.092  1.00  0.00     0.051 C 
HETATM    3  C   LIG     1      18.648  38.613  23.888  1.00  0.00     0.045 C 
ENDROOT
BRANCH   2   4
HETATM    4  C   LIG     1      16.442  37.423  23.716  1.00  0.00     0.037 C 
BRANCH   4   5
HETATM    5  C   LIG     1      17.197  36.499  24.693  1.00  0.00     0.002 C 
BRANCH   5   6
HETATM    6  C   LIG     1      17.237  35.040  24.210  1.00  0.00    -0.004 C 
HETATM    7  C   LIG     1      16.967  34.903  22.711  1.00  0.00     0.005 C 
ENDBRANCH   5   6
ENDBRANCH   4   5
ENDBRANCH   2   4
BRANCH   2   8
HETATM    8  O   LIG     1      16.650  39.763  23.192  1.00  0.00    -0.391 OA
HETATM    9  H   LIG     1      17.304  40.490  23.010  1.00  0.00     0.210 HD
ENDBRANCH   2   8
TORSDOF 4
ENDMDL
MODEL 15
REMARK VINA RESULT:      -3.8      3.369      5.307
REMARK  4 active torsions:
REMARK  status: ('A' for Active; 'I' for Inactive)
REMARK    1  A    between atoms: C_2  and  C_5 
REMARK    2  A    between atoms: C_2  and  O_4 
REMARK    3  A    between atoms: C_5  and  C_6 
REMARK    4  A    between atoms: C_6  and  C_7 
ROOT
HETATM    1  C   LIG     1      17.435  36.482  20.995  1.00  0.00     0.045 C 
HETATM    2  C   LIG     1      16.416  36.070  22.080  1.00  0.00     0.051 C 
HETATM    3  C   LIG     1      17.119  36.039  23.452  1.00  0.00     0.045 C 
ENDROOT
BRANCH   2   4
HETATM    4  C   LIG     1      15.832  34.663  21.791  1.00  0.00     0.037 C 
BRANCH   4   5
HETATM    5  C   LIG     1      15.697  34.342  20.290  1.00  0.00     0.002 C 
BRANCH   5   6
HETATM    6  C   LIG     1      15.407  32.854  20.030  1.00  0.00    -0.004 C 
HETATM    7  C   LIG     1      15.194  32.540  18.550  1.00  0.00     0.005 C 
ENDBRANCH   5   6
ENDBRANCH   4   5
ENDBRANCH   2   4
BRANCH   2   8
HETATM    8  O   LIG     1      15.357  37.000  22.122  1.00  0.00    -0.391 OA
HETATM    9  H   LIG     1      14.632  36.666  21.530  1.00  0.00     0.210 HD
ENDBRANCH   2   8
TORSDOF 4
ENDMDL
MODEL 16
REMARK VINA RESULT:      -3.8     11.409     12.552
REMARK  4 active torsions:
REMARK  status: ('A' for Active; 'I' for Inactive)
REMARK    1  A    between atoms: C_2  and  C_5 
REMARK    2  A    between atoms: C_2  and  O_4 
REMARK    3  A    between atoms: C_5  and  C_6 
REMARK    4  A    between atoms: C_6  and  C_7 
ROOT
HETATM    1  C   LIG     1      20.368  33.928  12.668  1.00  0.00     0.045 C 
HETATM    2  C   LIG     1      18.969  33.786  12.030  1.00  0.00     0.051 C 
HETATM    3  C   LIG     1      18.845  34.774  10.852  1.00  0.00     0.045 C 
ENDROOT
BRANCH   2   4
HETATM    4  C   LIG     1      17.852  34.100  13.059  1.00  0.00     0.037 C 
BRANCH   4   5
HETATM    5  C   LIG     1      17.990  33.324  14.383  1.00  0.00     0.002 C 
BRANCH   5   6
HETATM    6  C   LIG     1      16.670  32.668  14.821  1.00  0.00    -0.004 C 
HETATM    7  C   LIG     1      15.972  31.923  13.684  1.00  0.00     0.005 C 
ENDBRANCH   5   6
ENDBRANCH   4   5
ENDBRANCH   2   4
BRANCH   2   8
HETATM    8  O   LIG     1      18.789  32.472  11.554  1.00  0.00    -0.391 OA
HETATM    9  H   LIG     1      19.179  32.420  10.641  1.00  0.00     0.210 HD
ENDBRANCH   2   8
TORSDOF 4
ENDMDL
MODEL 17
REMARK VINA RESULT:      -3.8      8.815     10.565
REMARK  4 active torsions:
REMARK  status: ('A' for Active; 'I' for Inactive)
REMARK    1  A    between atoms: C_2  and  C_5 
REMARK    2  A    between atoms: C_2  and  O_4 
REMARK    3  A    between atoms: C_5  and  C_6 
REMARK    4  A    between atoms: C_6  and  C_7 
ROOT
HETATM    1  C   LIG     1      13.803  31.846  17.024  1.00  0.00     0.045 C 
HETATM    2  C   LIG     1      15.086  32.700  17.116  1.00  0.00     0.051 C 
HETATM    3  C   LIG     1      14.719  34.188  16.946  1.00  0.00     0.045 C 
ENDROOT
BRANCH   2   4
HETATM    4  C   LIG     1      16.096  32.310  16.005  1.00  0.00     0.037 C 
BRANCH   4   5
HETATM    5  C   LIG     1      15.476  31.479  14.865  1.00  0.00     0.002 C 
BRANCH   5   6
HETATM    6  C   LIG     1      15.997  31.899  13.481  1.00  0.00    -0.004 C 
HETATM    7  C   LIG     1      17.035  33.019  13.552  1.00  0.00     0.005 C 
ENDBRANCH   5   6
ENDBRANCH   4   5
ENDBRANCH   2   4
BRANCH   2   8
HETATM    8  O   LIG     1      15.699  32.513  18.371  1.00  0.00    -0.391 OA
HETATM    9  H   LIG     1      16.659  32.305  18.216  1.00  0.00     0.210 HD
ENDBRANCH   2   8
TORSDOF 4
ENDMDL
MODEL 18
REMARK VINA RESULT:      -3.7      2.140      3.369
REMARK  4 active torsions:
REMARK  status: ('A' for Active; 'I' for Inactive)
REMARK    1  A    between atoms: C_2  and  C_5 
REMARK    2  A    between atoms: C_2  and  O_4 
REMARK    3  A    between atoms: C_5  and  C_6 
REMARK    4  A    between atoms: C_6  and  C_7 
ROOT
HETATM    1  C   LIG     1      16.980  35.092  22.701  1.00  0.00     0.045 C 
HETATM    2  C   LIG     1      16.485  36.104  21.646  1.00  0.00     0.051 C 
HETATM    3  C   LIG     1      16.305  35.383  20.294  1.00  0.00     0.045 C 
ENDROOT
BRANCH   2   4
HETATM    4  C   LIG     1      17.504  37.259  21.459  1.00  0.00     0.037 C 
BRANCH   4   5
HETATM    5  C   LIG     1      17.114  38.557  22.192  1.00  0.00     0.002 C 
BRANCH   5   6
HETATM    6  C   LIG     1      17.278  38.443  23.717  1.00  0.00    -0.004 C 
HETATM    7  C   LIG     1      18.724  38.189  24.141  1.00  0.00     0.005 C 
ENDBRANCH   5   6
ENDBRANCH   4   5
ENDBRANCH   2   4
BRANCH   2   8
HETATM    8  O   LIG     1      15.250  36.652  22.047  1.00  0.00    -0.391 OA
HETATM    9  H   LIG     1      15.315  36.879  23.013  1.00  0.00     0.210 HD
ENDBRANCH   2   8
TORSDOF 4
ENDMDL
MODEL 19
REMARK VINA RESULT:      -3.3     15.713     16.841
REMARK  4 active torsions:
REMARK  status: ('A' for Active; 'I' for Inactive)
REMARK    1  A    between atoms: C_2  and  C_5 
REMARK    2  A    between atoms: C_2  and  O_4 
REMARK    3  A    between atoms: C_5  and  C_6 
REMARK    4  A    between atoms: C_6  and  C_7 
ROOT
HETATM    1  C   LIG     1      27.061  31.470  37.940  1.00  0.00     0.045 C 
HETATM    2  C   LIG     1      26.293  30.334  37.230  1.00  0.00     0.051 C 
HETATM    3  C   LIG     1      27.189  29.081  37.160  1.00  0.00     0.045 C 
ENDROOT
BRANCH   2   4
HETATM    4  C   LIG     1      25.900  30.744  35.787  1.00  0.00     0.037 C 
BRANCH   4   5
HETATM    5  C   LIG     1      26.782  30.103  34.697  1.00  0.00     0.002 C 
BRANCH   5   6
HETATM    6  C   LIG     1      27.741  31.114  34.047  1.00  0.00    -0.004 C 
HETATM    7  C   LIG     1      29.131  31.108  34.684  1.00  0.00     0.005 C 
ENDBRANCH   5   6
ENDBRANCH   4   5
ENDBRANCH   2   4
BRANCH   2   8
HETATM    8  O   LIG     1      25.120  30.026  37.948  1.00  0.00    -0.391 OA
HETATM    9  H   LIG     1      24.910  29.066  37.796  1.00  0.00     0.210 HD
ENDBRANCH   2   8
TORSDOF 4
ENDMDL
MODEL 20
REMARK VINA RESULT:      -3.0     11.736     13.114
REMARK  4 active torsions:
REMARK  status: ('A' for Active; 'I' for Inactive)
REMARK    1  A    between atoms: C_2  and  C_5 
REMARK    2  A    between atoms: C_2  and  O_4 
REMARK    3  A    between atoms: C_5  and  C_6 
REMARK    4  A    between atoms: C_6  and  C_7 
ROOT
HETATM    1  C   LIG     1      21.547  34.493  12.682  1.00  0.00     0.045 C 
HETATM    2  C   LIG     1      20.550  34.071  11.580  1.00  0.00     0.051 C 
HETATM    3  C   LIG     1      20.889  34.817  10.274  1.00  0.00     0.045 C 
ENDROOT
BRANCH   2   4
HETATM    4  C   LIG     1      19.093  34.417  11.984  1.00  0.00     0.037 C 
BRANCH   4   5
HETATM    5  C   LIG     1      18.314  33.228  12.581  1.00  0.00     0.002 C 
BRANCH   5   6
HETATM    6  C   LIG     1      18.200  33.310  14.112  1.00  0.00    -0.004 C 
HETATM    7  C   LIG     1      17.483  34.574  14.587  1.00  0.00     0.005 C 
ENDBRANCH   5   6
ENDBRANCH   4   5
ENDBRANCH   2   4
BRANCH   2   8
HETATM    8  O   LIG     1      20.640  32.682  11.358  1.00  0.00    -0.391 OA
HETATM    9  H   LIG     1      21.490  32.503  10.874  1.00  0.00     0.210 HD
ENDBRANCH   2   8
TORSDOF 4
ENDMDL
