REMARK  3 active torsions:
REMARK  status: ('A' for Active; 'I' for Inactive)
REMARK    1  A    between atoms: C_2  and  C_5 
REMARK    2  A    between atoms: C_2  and  O_4 
REMARK    3  A    between atoms: C_5  and  C_6 
ROOT
HETATM    1  C   LIG     1       2.117  -0.905   1.309  1.00  0.00     0.045 C 
HETATM    2  C   LIG     1       1.295  -0.263   0.173  1.00  0.00     0.051 C 
HETATM    3  C   LIG     1       1.686   1.221   0.065  1.00  0.00     0.045 C 
ENDROOT
BRANCH   2   4
HETATM    4  C   LIG     1      -0.224  -0.420   0.481  1.00  0.00     0.041 C 
BRANCH   4   5
HETATM    5  C   LIG     1      -1.164   0.113  -0.640  1.00  0.00    -0.020 C 
HETATM    6  C   LIG     1      -1.777   1.470  -0.260  1.00  0.00     0.009 C 
HETATM    7  C   LIG     1      -2.286  -0.891  -0.940  1.00  0.00     0.009 C 
ENDBRANCH   4   5
ENDBRANCH   2   4
BRANCH   2   8
HETATM    8  O   LIG     1       1.617  -0.892  -1.045  1.00  0.00    -0.391 OA
HETATM    9  H   LIG     1       1.350  -1.847  -0.976  1.00  0.00     0.210 HD
ENDBRANCH   2   8
TORSDOF 3
