MODEL 1
REMARK VINA RESULT:      -5.2      0.000      0.000
REMARK  3 active torsions:
REMARK  status: ('A' for Active; 'I' for Inactive)
REMARK    1  A    between atoms: C_2  and  C_5 
REMARK    2  A    between atoms: C_2  and  O_4 
REMARK    3  A    between atoms: C_5  and  C_6 
ROOT
HETATM    1  C   LIG     1      16.807  36.269  22.670  1.00  0.00     0.045 C 
HETATM    2  C   LIG     1      16.655  37.592  23.448  1.00  0.00     0.051 C 
HETATM    3  C   LIG     1      17.732  38.575  22.957  1.00  0.00     0.045 C 
ENDROOT
BRANCH   2   4
HETATM    4  C   LIG     1      16.806  37.315  24.974  1.00  0.00     0.041 C 
BRANCH   4   5
HETATM    5  C   LIG     1      17.905  36.271  25.331  1.00  0.00    -0.020 C 
HETATM    6  C   LIG     1      17.288  34.923  25.735  1.00  0.00     0.009 C 
HETATM    7  C   LIG     1      18.803  36.785  26.464  1.00  0.00     0.009 C 
ENDBRANCH   4   5
ENDBRANCH   2   4
BRANCH   2   8
HETATM    8  O   LIG     1      15.392  38.150  23.173  1.00  0.00    -0.391 OA
HETATM    9  H   LIG     1      14.745  37.782  23.831  1.00  0.00     0.210 HD
ENDBRANCH   2   8
TORSDOF 3
ENDMDL
MODEL 2
REMARK VINA RESULT:      -5.1      1.563      3.375
REMARK  3 active torsions:
REMARK  status: ('A' for Active; 'I' for Inactive)
REMARK    1  A    between atoms: C_2  and  C_5 
REMARK    2  A    between atoms: C_2  and  O_4 
REMARK    3  A    between atoms: C_5  and  C_6 
ROOT
HETATM    1  C   LIG     1      17.322  38.882  22.826  1.00  0.00     0.045 C 
HETATM    2  C   LIG     1      16.626  37.796  23.671  1.00  0.00     0.051 C 
HETATM    3  C   LIG     1      17.151  37.889  25.115  1.00  0.00     0.045 C 
ENDROOT
BRANCH   2   4
HETATM    4  C   LIG     1      16.923  36.395  23.058  1.00  0.00     0.041 C 
BRANCH   4   5
HETATM    5  C   LIG     1      16.415  36.214  21.597  1.00  0.00    -0.020 C 
HETATM    6  C   LIG     1      15.565  34.942  21.453  1.00  0.00     0.009 C 
HETATM    7  C   LIG     1      17.589  36.161  20.610  1.00  0.00     0.009 C 
ENDBRANCH   4   5
ENDBRANCH   2   4
BRANCH   2   8
HETATM    8  O   LIG     1      15.240  38.041  23.691  1.00  0.00    -0.391 OA
HETATM    9  H   LIG     1      15.000  38.369  24.598  1.00  0.00     0.210 HD
ENDBRANCH   2   8
TORSDOF 3
ENDMDL
MODEL 3
REMARK VINA RESULT:      -4.9      1.774      4.058
REMARK  3 active torsions:
REMARK  status: ('A' for Active; 'I' for Inactive)
REMARK    1  A    between atoms: C_2  and  C_5 
REMARK    2  A    between atoms: C_2  and  O_4 
REMARK    3  A    between atoms: C_5  and  C_6 
ROOT
HETATM    1  C   LIG     1      17.850  38.204  24.302  1.00  0.00     0.045 C 
HETATM    2  C   LIG     1      16.761  37.701  23.334  1.00  0.00     0.051 C 
HETATM    3  C   LIG     1      16.850  36.167  23.251  1.00  0.00     0.045 C 
ENDROOT
BRANCH   2   4
HETATM    4  C   LIG     1      16.974  38.350  21.934  1.00  0.00     0.041 C 
BRANCH   4   5
HETATM    5  C   LIG     1      18.381  38.097  21.317  1.00  0.00    -0.020 C 
HETATM    6  C   LIG     1      18.977  39.388  20.733  1.00  0.00     0.009 C 
HETATM    7  C   LIG     1      18.318  37.021  20.224  1.00  0.00     0.009 C 
ENDBRANCH   4   5
ENDBRANCH   2   4
BRANCH   2   8
HETATM    8  O   LIG     1      15.493  38.040  23.845  1.00  0.00    -0.391 OA
HETATM    9  H   LIG     1      14.986  37.198  23.988  1.00  0.00     0.210 HD
ENDBRANCH   2   8
TORSDOF 3
ENDMDL
MODEL 4
REMARK VINA RESULT:      -4.6      2.291      3.405
REMARK  3 active torsions:
REMARK  status: ('A' for Active; 'I' for Inactive)
REMARK    1  A    between atoms: C_2  and  C_5 
REMARK    2  A    between atoms: C_2  and  O_4 
REMARK    3  A    between atoms: C_5  and  C_6 
ROOT
HETATM    1  C   LIG     1      14.974  35.588  21.268  1.00  0.00     0.045 C 
HETATM    2  C   LIG     1      16.378  36.056  21.703  1.00  0.00     0.051 C 
HETATM    3  C   LIG     1      16.953  35.026  22.690  1.00  0.00     0.045 C 
ENDROOT
BRANCH   2   4
HETATM    4  C   LIG     1      16.272  37.464  22.364  1.00  0.00     0.041 C 
BRANCH   4   5
HETATM    5  C   LIG     1      17.607  37.993  22.964  1.00  0.00    -0.020 C 
HETATM    6  C   LIG     1      17.449  38.359  24.448  1.00  0.00     0.009 C 
HETATM    7  C   LIG     1      18.114  39.214  22.184  1.00  0.00     0.009 C 
ENDBRANCH   4   5
ENDBRANCH   2   4
BRANCH   2   8
HETATM    8  O   LIG     1      17.221  36.105  20.577  1.00  0.00    -0.391 OA
HETATM    9  H   LIG     1      17.711  36.969  20.598  1.00  0.00     0.210 HD
ENDBRANCH   2   8
TORSDOF 3
ENDMDL
MODEL 5
REMARK VINA RESULT:      -4.4      3.500      4.823
REMARK  3 active torsions:
REMARK  status: ('A' for Active; 'I' for Inactive)
REMARK    1  A    between atoms: C_2  and  C_5 
REMARK    2  A    between atoms: C_2  and  O_4 
REMARK    3  A    between atoms: C_5  and  C_6 
ROOT
HETATM    1  C   LIG     1      14.878  35.768  21.372  1.00  0.00     0.045 C 
HETATM    2  C   LIG     1      16.239  35.138  21.013  1.00  0.00     0.051 C 
HETATM    3  C   LIG     1      17.048  34.951  22.308  1.00  0.00     0.045 C 
ENDROOT
BRANCH   2   4
HETATM    4  C   LIG     1      16.992  36.065  20.013  1.00  0.00     0.041 C 
BRANCH   4   5
HETATM    5  C   LIG     1      18.237  36.780  20.614  1.00  0.00    -0.020 C 
HETATM    6  C   LIG     1      17.865  38.144  21.215  1.00  0.00     0.009 C 
HETATM    7  C   LIG     1      19.329  36.968  19.551  1.00  0.00     0.009 C 
ENDBRANCH   4   5
ENDBRANCH   2   4
BRANCH   2   8
HETATM    8  O   LIG     1      16.026  33.868  20.442  1.00  0.00    -0.391 OA
HETATM    9  H   LIG     1      15.529  33.315  21.101  1.00  0.00     0.210 HD
ENDBRANCH   2   8
TORSDOF 3
ENDMDL
MODEL 6
REMARK VINA RESULT:      -4.4      3.162      4.402
REMARK  3 active torsions:
REMARK  status: ('A' for Active; 'I' for Inactive)
REMARK    1  A    between atoms: C_2  and  C_5 
REMARK    2  A    between atoms: C_2  and  O_4 
REMARK    3  A    between atoms: C_5  and  C_6 
ROOT
HETATM    1  C   LIG     1      18.569  37.304  19.885  1.00  0.00     0.045 C 
HETATM    2  C   LIG     1      19.108  38.747  19.947  1.00  0.00     0.051 C 
HETATM    3  C   LIG     1      20.616  38.719  19.646  1.00  0.00     0.045 C 
ENDROOT
BRANCH   2   4
HETATM    4  C   LIG     1      18.830  39.342  21.360  1.00  0.00     0.041 C 
BRANCH   4   5
HETATM    5  C   LIG     1      17.913  38.461  22.258  1.00  0.00    -0.020 C 
HETATM    6  C   LIG     1      16.478  39.008  22.301  1.00  0.00     0.009 C 
HETATM    7  C   LIG     1      18.469  38.366  23.686  1.00  0.00     0.009 C 
ENDBRANCH   4   5
ENDBRANCH   2   4
BRANCH   2   8
HETATM    8  O   LIG     1      18.476  39.522  18.955  1.00  0.00    -0.391 OA
HETATM    9  H   LIG     1      18.476  38.997  18.111  1.00  0.00     0.210 HD
ENDBRANCH   2   8
TORSDOF 3
ENDMDL
MODEL 7
REMARK VINA RESULT:      -4.4      2.532      3.940
REMARK  3 active torsions:
REMARK  status: ('A' for Active; 'I' for Inactive)
REMARK    1  A    between atoms: C_2  and  C_5 
REMARK    2  A    between atoms: C_2  and  O_4 
REMARK    3  A    between atoms: C_5  and  C_6 
ROOT
HETATM    1  C   LIG     1      14.739  35.754  21.124  1.00  0.00     0.045 C 
HETATM    2  C   LIG     1      16.052  35.025  20.773  1.00  0.00     0.051 C 
HETATM    3  C   LIG     1      15.728  33.550  20.480  1.00  0.00     0.045 C 
ENDROOT
BRANCH   2   4
HETATM    4  C   LIG     1      17.048  35.153  21.964  1.00  0.00     0.041 C 
BRANCH   4   5
HETATM    5  C   LIG     1      16.771  36.362  22.905  1.00  0.00    -0.020 C 
HETATM    6  C   LIG     1      17.449  37.641  22.391  1.00  0.00     0.009 C 
HETATM    7  C   LIG     1      17.249  36.067  24.334  1.00  0.00     0.009 C 
ENDBRANCH   4   5
ENDBRANCH   2   4
BRANCH   2   8
HETATM    8  O   LIG     1      16.602  35.594  19.609  1.00  0.00    -0.391 OA
HETATM    9  H   LIG     1      17.432  35.095  19.387  1.00  0.00     0.210 HD
ENDBRANCH   2   8
TORSDOF 3
ENDMDL
MODEL 8
REMARK VINA RESULT:      -4.4      1.153      1.576
REMARK  3 active torsions:
REMARK  status: ('A' for Active; 'I' for Inactive)
REMARK    1  A    between atoms: C_2  and  C_5 
REMARK    2  A    between atoms: C_2  and  O_4 
REMARK    3  A    between atoms: C_5  and  C_6 
ROOT
HETATM    1  C   LIG     1      15.251  37.329  22.620  1.00  0.00     0.045 C 
HETATM    2  C   LIG     1      16.719  37.017  22.977  1.00  0.00     0.051 C 
HETATM    3  C   LIG     1      17.023  35.565  22.570  1.00  0.00     0.045 C 
ENDROOT
BRANCH   2   4
HETATM    4  C   LIG     1      16.935  37.226  24.505  1.00  0.00     0.041 C 
BRANCH   4   5
HETATM    5  C   LIG     1      17.887  36.187  25.167  1.00  0.00    -0.020 C 
HETATM    6  C   LIG     1      17.133  34.908  25.564  1.00  0.00     0.009 C 
HETATM    7  C   LIG     1      18.576  36.782  26.403  1.00  0.00     0.009 C 
ENDBRANCH   4   5
ENDBRANCH   2   4
BRANCH   2   8
HETATM    8  O   LIG     1      17.566  37.866  22.240  1.00  0.00    -0.391 OA
HETATM    9  H   LIG     1      17.395  38.800  22.536  1.00  0.00     0.210 HD
ENDBRANCH   2   8
TORSDOF 3
ENDMDL
MODEL 9
REMARK VINA RESULT:      -4.3      1.434      2.145
REMARK  3 active torsions:
REMARK  status: ('A' for Active; 'I' for Inactive)
REMARK    1  A    between atoms: C_2  and  C_5 
REMARK    2  A    between atoms: C_2  and  O_4 
REMARK    3  A    between atoms: C_5  and  C_6 
ROOT
HETATM    1  C   LIG     1      15.560  37.826  22.826  1.00  0.00     0.045 C 
HETATM    2  C   LIG     1      17.022  37.680  22.357  1.00  0.00     0.051 C 
HETATM    3  C   LIG     1      17.101  36.516  21.354  1.00  0.00     0.045 C 
ENDROOT
BRANCH   2   4
HETATM    4  C   LIG     1      17.937  37.418  23.591  1.00  0.00     0.041 C 
BRANCH   4   5
HETATM    5  C   LIG     1      17.218  36.726  24.787  1.00  0.00    -0.020 C 
HETATM    6  C   LIG     1      17.740  37.250  26.134  1.00  0.00     0.009 C 
HETATM    7  C   LIG     1      17.393  35.202  24.726  1.00  0.00     0.009 C 
ENDBRANCH   4   5
ENDBRANCH   2   4
BRANCH   2   8
HETATM    8  O   LIG     1      17.417  38.858  21.695  1.00  0.00    -0.391 OA
HETATM    9  H   LIG     1      16.604  39.411  21.544  1.00  0.00     0.210 HD
ENDBRANCH   2   8
TORSDOF 3
ENDMDL
MODEL 10
REMARK VINA RESULT:      -4.1      2.691      4.014
REMARK  3 active torsions:
REMARK  status: ('A' for Active; 'I' for Inactive)
REMARK    1  A    between atoms: C_2  and  C_5 
REMARK    2  A    between atoms: C_2  and  O_4 
REMARK    3  A    between atoms: C_5  and  C_6 
ROOT
HETATM    1  C   LIG     1      16.005  36.411  21.961  1.00  0.00     0.045 C 
HETATM    2  C   LIG     1      16.642  37.603  22.703  1.00  0.00     0.051 C 
HETATM    3  C   LIG     1      15.771  38.849  22.465  1.00  0.00     0.045 C 
ENDROOT
BRANCH   2   4
HETATM    4  C   LIG     1      18.091  37.826  22.178  1.00  0.00     0.041 C 
BRANCH   4   5
HETATM    5  C   LIG     1      18.178  38.175  20.663  1.00  0.00    -0.020 C 
HETATM    6  C   LIG     1      18.787  37.019  19.855  1.00  0.00     0.009 C 
HETATM    7  C   LIG     1      19.004  39.449  20.438  1.00  0.00     0.009 C 
ENDBRANCH   4   5
ENDBRANCH   2   4
BRANCH   2   8
HETATM    8  O   LIG     1      16.656  37.335  24.085  1.00  0.00    -0.391 OA
HETATM    9  H   LIG     1      15.809  36.867  24.315  1.00  0.00     0.210 HD
ENDBRANCH   2   8
TORSDOF 3
ENDMDL
MODEL 11
REMARK VINA RESULT:      -4.1      8.618     10.574
REMARK  3 active torsions:
REMARK  status: ('A' for Active; 'I' for Inactive)
REMARK    1  A    between atoms: C_2  and  C_5 
REMARK    2  A    between atoms: C_2  and  O_4 
REMARK    3  A    between atoms: C_5  and  C_6 
ROOT
HETATM    1  C   LIG     1      14.582  31.866  18.474  1.00  0.00     0.045 C 
HETATM    2  C   LIG     1      14.307  32.254  17.007  1.00  0.00     0.051 C 
HETATM    3  C   LIG     1      13.030  31.532  16.542  1.00  0.00     0.045 C 
ENDROOT
BRANCH   2   4
HETATM    4  C   LIG     1      15.528  31.852  16.127  1.00  0.00     0.041 C 
BRANCH   4   5
HETATM    5  C   LIG     1      15.162  31.448  14.669  1.00  0.00    -0.020 C 
HETATM    6  C   LIG     1      15.280  29.930  14.461  1.00  0.00     0.009 C 
HETATM    7  C   LIG     1      16.058  32.175  13.656  1.00  0.00     0.009 C 
ENDBRANCH   4   5
ENDBRANCH   2   4
BRANCH   2   8
HETATM    8  O   LIG     1      14.081  33.641  16.929  1.00  0.00    -0.391 OA
HETATM    9  H   LIG     1      13.184  33.783  16.524  1.00  0.00     0.210 HD
ENDBRANCH   2   8
TORSDOF 3
ENDMDL
MODEL 12
REMARK VINA RESULT:      -4.0      9.557     11.415
REMARK  3 active torsions:
REMARK  status: ('A' for Active; 'I' for Inactive)
REMARK    1  A    between atoms: C_2  and  C_5 
REMARK    2  A    between atoms: C_2  and  O_4 
REMARK    3  A    between atoms: C_5  and  C_6 
ROOT
HETATM    1  C   LIG     1      12.575  32.342  16.607  1.00  0.00     0.045 C 
HETATM    2  C   LIG     1      13.801  31.407  16.552  1.00  0.00     0.051 C 
HETATM    3  C   LIG     1      15.074  32.263  16.670  1.00  0.00     0.045 C 
ENDROOT
BRANCH   2   4
HETATM    4  C   LIG     1      13.785  30.611  15.213  1.00  0.00     0.041 C 
BRANCH   4   5
HETATM    5  C   LIG     1      15.195  30.329  14.617  1.00  0.00    -0.020 C 
HETATM    6  C   LIG     1      15.528  31.305  13.478  1.00  0.00     0.009 C 
HETATM    7  C   LIG     1      15.297  28.886  14.104  1.00  0.00     0.009 C 
ENDBRANCH   4   5
ENDBRANCH   2   4
BRANCH   2   8
HETATM    8  O   LIG     1      13.761  30.525  17.649  1.00  0.00    -0.391 OA
HETATM    9  H   LIG     1      12.913  30.687  18.141  1.00  0.00     0.210 HD
ENDBRANCH   2   8
TORSDOF 3
ENDMDL
MODEL 13
REMARK VINA RESULT:      -3.9      9.634     11.383
REMARK  3 active torsions:
REMARK  status: ('A' for Active; 'I' for Inactive)
REMARK    1  A    between atoms: C_2  and  C_5 
REMARK    2  A    between atoms: C_2  and  O_4 
REMARK    3  A    between atoms: C_5  and  C_6 
ROOT
HETATM    1  C   LIG     1      15.856  33.367  15.947  1.00  0.00     0.045 C 
HETATM    2  C   LIG     1      16.686  32.607  14.892  1.00  0.00     0.051 C 
HETATM    3  C   LIG     1      17.437  33.635  14.028  1.00  0.00     0.045 C 
ENDROOT
BRANCH   2   4
HETATM    4  C   LIG     1      15.737  31.732  14.020  1.00  0.00     0.041 C 
BRANCH   4   5
HETATM    5  C   LIG     1      15.275  30.411  14.703  1.00  0.00    -0.020 C 
HETATM    6  C   LIG     1      15.348  29.222  13.733  1.00  0.00     0.009 C 
HETATM    7  C   LIG     1      13.844  30.545  15.245  1.00  0.00     0.009 C 
ENDBRANCH   4   5
ENDBRANCH   2   4
BRANCH   2   8
HETATM    8  O   LIG     1      17.638  31.801  15.544  1.00  0.00    -0.391 OA
HETATM    9  H   LIG     1      17.851  32.224  16.418  1.00  0.00     0.210 HD
ENDBRANCH   2   8
TORSDOF 3
ENDMDL
MODEL 14
REMARK VINA RESULT:      -3.9      6.828      8.403
REMARK  3 active torsions:
REMARK  status: ('A' for Active; 'I' for Inactive)
REMARK    1  A    between atoms: C_2  and  C_5 
REMARK    2  A    between atoms: C_2  and  O_4 
REMARK    3  A    between atoms: C_5  and  C_6 
ROOT
HETATM    1  C   LIG     1      14.582  34.155  16.889  1.00  0.00     0.045 C 
HETATM    2  C   LIG     1      14.687  32.616  16.859  1.00  0.00     0.051 C 
HETATM    3  C   LIG     1      13.267  32.028  16.933  1.00  0.00     0.045 C 
ENDROOT
BRANCH   2   4
HETATM    4  C   LIG     1      15.555  32.134  18.060  1.00  0.00     0.041 C 
BRANCH   4   5
HETATM    5  C   LIG     1      14.872  32.293  19.450  1.00  0.00    -0.020 C 
HETATM    6  C   LIG     1      15.550  33.391  20.285  1.00  0.00     0.009 C 
HETATM    7  C   LIG     1      14.892  30.970  20.228  1.00  0.00     0.009 C 
ENDBRANCH   4   5
ENDBRANCH   2   4
BRANCH   2   8
HETATM    8  O   LIG     1      15.266  32.214  15.641  1.00  0.00    -0.391 OA
HETATM    9  H   LIG     1      16.014  31.592  15.848  1.00  0.00     0.210 HD
ENDBRANCH   2   8
TORSDOF 3
ENDMDL
MODEL 15
REMARK VINA RESULT:      -3.8      8.541      9.908
REMARK  3 active torsions:
REMARK  status: ('A' for Active; 'I' for Inactive)
REMARK    1  A    between atoms: C_2  and  C_5 
REMARK    2  A    between atoms: C_2  and  O_4 
REMARK    3  A    between atoms: C_5  and  C_6 
ROOT
HETATM    1  C   LIG     1      13.646  32.043  17.142  1.00  0.00     0.045 C 
HETATM    2  C   LIG     1      15.059  32.660  17.169  1.00  0.00     0.051 C 
HETATM    3  C   LIG     1      14.948  34.153  16.814  1.00  0.00     0.045 C 
ENDROOT
BRANCH   2   4
HETATM    4  C   LIG     1      15.971  31.910  16.152  1.00  0.00     0.041 C 
BRANCH   4   5
HETATM    5  C   LIG     1      16.271  32.709  14.849  1.00  0.00    -0.020 C 
HETATM    6  C   LIG     1      15.914  31.893  13.597  1.00  0.00     0.009 C 
HETATM    7  C   LIG     1      17.747  33.126  14.787  1.00  0.00     0.009 C 
ENDBRANCH   4   5
ENDBRANCH   2   4
BRANCH   2   8
HETATM    8  O   LIG     1      15.586  32.556  18.470  1.00  0.00    -0.391 OA
HETATM    9  H   LIG     1      14.959  32.006  19.011  1.00  0.00     0.210 HD
ENDBRANCH   2   8
TORSDOF 3
ENDMDL
MODEL 16
REMARK VINA RESULT:      -3.8      2.527      4.452
REMARK  3 active torsions:
REMARK  status: ('A' for Active; 'I' for Inactive)
REMARK    1  A    between atoms: C_2  and  C_5 
REMARK    2  A    between atoms: C_2  and  O_4 
REMARK    3  A    between atoms: C_5  and  C_6 
ROOT
HETATM    1  C   LIG     1      17.051  35.855  23.336  1.00  0.00     0.045 C 
HETATM    2  C   LIG     1      16.486  36.747  22.212  1.00  0.00     0.051 C 
HETATM    3  C   LIG     1      16.024  38.078  22.831  1.00  0.00     0.045 C 
ENDROOT
BRANCH   2   4
HETATM    4  C   LIG     1      15.302  36.013  21.514  1.00  0.00     0.041 C 
BRANCH   4   5
HETATM    5  C   LIG     1      15.705  34.699  20.782  1.00  0.00    -0.020 C 
HETATM    6  C   LIG     1      15.677  34.876  19.256  1.00  0.00     0.009 C 
HETATM    7  C   LIG     1      14.779  33.542  21.182  1.00  0.00     0.009 C 
ENDBRANCH   4   5
ENDBRANCH   2   4
BRANCH   2   8
HETATM    8  O   LIG     1      17.508  37.026  21.284  1.00  0.00    -0.391 OA
HETATM    9  H   LIG     1      17.732  36.180  20.813  1.00  0.00     0.210 HD
ENDBRANCH   2   8
TORSDOF 3
ENDMDL
MODEL 17
REMARK VINA RESULT:      -3.7     15.898     16.968
REMARK  3 active torsions:
REMARK  status: ('A' for Active; 'I' for Inactive)
REMARK    1  A    between atoms: C_2  and  C_5 
REMARK    2  A    between atoms: C_2  and  O_4 
REMARK    3  A    between atoms: C_5  and  C_6 
ROOT
HETATM    1  C   LIG     1      26.456  31.895  38.060  1.00  0.00     0.045 C 
HETATM    2  C   LIG     1      26.242  30.507  37.424  1.00  0.00     0.051 C 
HETATM    3  C   LIG     1      27.487  29.646  37.701  1.00  0.00     0.045 C 
ENDROOT
BRANCH   2   4
HETATM    4  C   LIG     1      26.003  30.669  35.894  1.00  0.00     0.041 C 
BRANCH   4   5
HETATM    5  C   LIG     1      27.115  30.043  35.001  1.00  0.00    -0.020 C 
HETATM    6  C   LIG     1      27.740  31.090  34.066  1.00  0.00     0.009 C 
HETATM    7  C   LIG     1      26.560  28.878  34.169  1.00  0.00     0.009 C 
ENDBRANCH   4   5
ENDBRANCH   2   4
BRANCH   2   8
HETATM    8  O   LIG     1      25.134  29.885  38.031  1.00  0.00    -0.391 OA
HETATM    9  H   LIG     1      25.034  28.980  37.631  1.00  0.00     0.210 HD
ENDBRANCH   2   8
TORSDOF 3
ENDMDL
MODEL 18
REMARK VINA RESULT:      -3.6      2.071      3.667
REMARK  3 active torsions:
REMARK  status: ('A' for Active; 'I' for Inactive)
REMARK    1  A    between atoms: C_2  and  C_5 
REMARK    2  A    between atoms: C_2  and  O_4 
REMARK    3  A    between atoms: C_5  and  C_6 
ROOT
HETATM    1  C   LIG     1      17.271  36.205  24.852  1.00  0.00     0.045 C 
HETATM    2  C   LIG     1      18.050  37.514  25.093  1.00  0.00     0.051 C 
HETATM    3  C   LIG     1      17.071  38.575  25.625  1.00  0.00     0.045 C 
ENDROOT
BRANCH   2   4
HETATM    4  C   LIG     1      18.706  37.979  23.759  1.00  0.00     0.041 C 
BRANCH   4   5
HETATM    5  C   LIG     1      17.692  38.441  22.672  1.00  0.00    -0.020 C 
HETATM    6  C   LIG     1      17.208  37.260  21.817  1.00  0.00     0.009 C 
HETATM    7  C   LIG     1      18.311  39.513  21.763  1.00  0.00     0.009 C 
ENDBRANCH   4   5
ENDBRANCH   2   4
BRANCH   2   8
HETATM    8  O   LIG     1      19.035  37.294  26.075  1.00  0.00    -0.391 OA
HETATM    9  H   LIG     1      18.650  36.688  26.763  1.00  0.00     0.210 HD
ENDBRANCH   2   8
TORSDOF 3
ENDMDL
MODEL 19
REMARK VINA RESULT:      -3.6      6.863      8.297
REMARK  3 active torsions:
REMARK  status: ('A' for Active; 'I' for Inactive)
REMARK    1  A    between atoms: C_2  and  C_5 
REMARK    2  A    between atoms: C_2  and  O_4 
REMARK    3  A    between atoms: C_5  and  C_6 
ROOT
HETATM    1  C   LIG     1      13.675  30.819  16.369  1.00  0.00     0.045 C 
HETATM    2  C   LIG     1      14.110  32.066  17.164  1.00  0.00     0.051 C 
HETATM    3  C   LIG     1      15.421  32.598  16.561  1.00  0.00     0.045 C 
ENDROOT
BRANCH   2   4
HETATM    4  C   LIG     1      14.298  31.685  18.663  1.00  0.00     0.041 C 
BRANCH   4   5
HETATM    5  C   LIG     1      15.600  32.244  19.308  1.00  0.00    -0.020 C 
HETATM    6  C   LIG     1      16.292  31.187  20.183  1.00  0.00     0.009 C 
HETATM    7  C   LIG     1      15.304  33.493  20.150  1.00  0.00     0.009 C 
ENDBRANCH   4   5
ENDBRANCH   2   4
BRANCH   2   8
HETATM    8  O   LIG     1      13.127  33.067  17.031  1.00  0.00    -0.391 OA
HETATM    9  H   LIG     1      13.214  33.685  17.804  1.00  0.00     0.210 HD
ENDBRANCH   2   8
TORSDOF 3
ENDMDL
MODEL 20
REMARK VINA RESULT:      -3.2     15.984     17.207
REMARK  3 active torsions:
REMARK  status: ('A' for Active; 'I' for Inactive)
REMARK    1  A    between atoms: C_2  and  C_5 
REMARK    2  A    between atoms: C_2  and  O_4 
REMARK    3  A    between atoms: C_5  and  C_6 
ROOT
HETATM    1  C   LIG     1      22.856  21.053  22.714  1.00  0.00     0.045 C 
HETATM    2  C   LIG     1      23.221  21.936  21.503  1.00  0.00     0.051 C 
HETATM    3  C   LIG     1      22.017  22.834  21.172  1.00  0.00     0.045 C 
ENDROOT
BRANCH   2   4
HETATM    4  C   LIG     1      23.591  21.027  20.294  1.00  0.00     0.041 C 
BRANCH   4   5
HETATM    5  C   LIG     1      23.153  21.592  18.910  1.00  0.00    -0.020 C 
HETATM    6  C   LIG     1      22.674  20.472  17.973  1.00  0.00     0.009 C 
HETATM    7  C   LIG     1      24.301  22.362  18.243  1.00  0.00     0.009 C 
ENDBRANCH   4   5
ENDBRANCH   2   4
BRANCH   2   8
HETATM    8  O   LIG     1      24.307  22.766  21.845  1.00  0.00    -0.391 OA
HETATM    9  H   LIG     1      24.152  23.109  22.764  1.00  0.00     0.210 HD
ENDBRANCH   2   8
TORSDOF 3
ENDMDL
