REMARK  2 active torsions:
REMARK  status: ('A' for Active; 'I' for Inactive)
REMARK    1  A    between atoms: C_2  and  O_3 
REMARK    2  A    between atoms: O_3  and  C_4 
ROOT
HETATM    1  O   LIG     1       0.280  -0.438   0.162  1.00  0.00    -0.387 OA
ENDROOT
BRANCH   1   2
HETATM    2  C   LIG     1       1.453   0.205  -0.291  1.00  0.00     0.163 C 
HETATM    3  C   LIG     1       2.626  -0.227   0.576  1.00  0.00     0.033 C 
ENDBRANCH   1   2
BRANCH   1   4
HETATM    4  C   LIG     1      -0.856   0.033  -0.544  1.00  0.00     0.113 C 
HETATM    5  C   LIG     1      -1.571   1.102   0.288  1.00  0.00     0.039 C 
HETATM    6  C   LIG     1      -1.792  -1.148  -0.798  1.00  0.00     0.039 C 
ENDBRANCH   1   4
TORSDOF 2
