MODEL 1
REMARK VINA RESULT:      -4.7      0.000      0.000
REMARK  4 active torsions:
REMARK  status: ('A' for Active; 'I' for Inactive)
REMARK    1  A    between atoms: C_2  and  C_4 
REMARK    2  A    between atoms: C_4  and  C_5 
REMARK    3  A    between atoms: C_5  and  C_6 
REMARK    4  A    between atoms: C_6  and  O_7 
ROOT
HETATM    1  C   LIG     1      17.197  37.579  25.127  1.00  0.00     0.006 C 
ENDROOT
BRANCH   1   2
HETATM    2  C   LIG     1      18.040  36.323  25.445  1.00  0.00    -0.023 C 
HETATM    3  C   LIG     1      17.296  35.027  25.086  1.00  0.00     0.009 C 
HETATM    4  C   LIG     1      18.421  36.308  26.931  1.00  0.00     0.009 C 
ENDBRANCH   1   2
BRANCH   1   5
HETATM    5  C   LIG     1      17.500  38.163  23.739  1.00  0.00     0.026 C 
BRANCH   5   6
HETATM    6  C   LIG     1      16.278  38.076  22.826  1.00  0.00     0.164 C 
BRANCH   6   7
HETATM    7  O   LIG     1      15.114  38.057  23.603  1.00  0.00    -0.401 OA
HETATM    8  H   LIG     1      14.882  37.100  23.728  1.00  0.00     0.209 HD
ENDBRANCH   6   7
ENDBRANCH   5   6
ENDBRANCH   1   5
TORSDOF 4
ENDMDL
MODEL 2
REMARK VINA RESULT:      -4.6      3.925      4.970
REMARK  4 active torsions:
REMARK  status: ('A' for Active; 'I' for Inactive)
REMARK    1  A    between atoms: C_2  and  C_4 
REMARK    2  A    between atoms: C_4  and  C_5 
REMARK    3  A    between atoms: C_5  and  C_6 
REMARK    4  A    between atoms: C_6  and  O_7 
ROOT
HETATM    1  C   LIG     1      18.784  39.091  21.777  1.00  0.00     0.006 C 
ENDROOT
BRANCH   1   2
HETATM    2  C   LIG     1      17.432  38.458  22.182  1.00  0.00    -0.023 C 
HETATM    3  C   LIG     1      17.276  38.365  23.708  1.00  0.00     0.009 C 
HETATM    4  C   LIG     1      17.301  37.061  21.560  1.00  0.00     0.009 C 
ENDBRANCH   1   2
BRANCH   1   5
HETATM    5  C   LIG     1      18.880  39.374  20.270  1.00  0.00     0.026 C 
BRANCH   5   6
HETATM    6  C   LIG     1      20.093  38.678  19.655  1.00  0.00     0.164 C 
BRANCH   6   7
HETATM    7  O   LIG     1      20.791  39.583  18.846  1.00  0.00    -0.401 OA
HETATM    8  H   LIG     1      20.733  40.462  19.301  1.00  0.00     0.209 HD
ENDBRANCH   6   7
ENDBRANCH   5   6
ENDBRANCH   1   5
TORSDOF 4
ENDMDL
MODEL 3
REMARK VINA RESULT:      -4.5      1.151      1.621
REMARK  4 active torsions:
REMARK  status: ('A' for Active; 'I' for Inactive)
REMARK    1  A    between atoms: C_2  and  C_4 
REMARK    2  A    between atoms: C_4  and  C_5 
REMARK    3  A    between atoms: C_5  and  C_6 
REMARK    4  A    between atoms: C_6  and  O_7 
ROOT
HETATM    1  C   LIG     1      17.144  35.595  23.967  1.00  0.00     0.006 C 
ENDROOT
BRANCH   1   2
HETATM    2  C   LIG     1      17.391  35.975  25.445  1.00  0.00    -0.023 C 
HETATM    3  C   LIG     1      18.181  37.287  25.576  1.00  0.00     0.009 C 
HETATM    4  C   LIG     1      18.141  34.843  26.159  1.00  0.00     0.009 C 
ENDBRANCH   1   2
BRANCH   1   5
HETATM    5  C   LIG     1      17.129  36.816  23.034  1.00  0.00     0.026 C 
BRANCH   5   6
HETATM    6  C   LIG     1      15.702  37.187  22.636  1.00  0.00     0.164 C 
BRANCH   6   7
HETATM    7  O   LIG     1      15.191  38.123  23.543  1.00  0.00    -0.401 OA
HETATM    8  H   LIG     1      14.581  37.620  24.144  1.00  0.00     0.209 HD
ENDBRANCH   6   7
ENDBRANCH   5   6
ENDBRANCH   1   5
TORSDOF 4
ENDMDL
MODEL 4
REMARK VINA RESULT:      -4.5      2.956      4.599
REMARK  4 active torsions:
REMARK  status: ('A' for Active; 'I' for Inactive)
REMARK    1  A    between atoms: C_2  and  C_4 
REMARK    2  A    between atoms: C_4  and  C_5 
REMARK    3  A    between atoms: C_5  and  C_6 
REMARK    4  A    between atoms: C_6  and  O_7 
ROOT
HETATM    1  C   LIG     1      18.571  38.949  21.620  1.00  0.00     0.006 C 
ENDROOT
BRANCH   1   2
HETATM    2  C   LIG     1      18.772  38.468  20.164  1.00  0.00    -0.023 C 
HETATM    3  C   LIG     1      18.571  36.950  20.029  1.00  0.00     0.009 C 
HETATM    4  C   LIG     1      20.173  38.853  19.672  1.00  0.00     0.009 C 
ENDBRANCH   1   2
BRANCH   1   5
HETATM    5  C   LIG     1      17.203  38.551  22.194  1.00  0.00     0.026 C 
BRANCH   5   6
HETATM    6  C   LIG     1      17.341  38.000  23.613  1.00  0.00     0.164 C 
BRANCH   6   7
HETATM    7  O   LIG     1      16.100  38.053  24.258  1.00  0.00    -0.401 OA
HETATM    8  H   LIG     1      16.094  37.303  24.907  1.00  0.00     0.209 HD
ENDBRANCH   6   7
ENDBRANCH   5   6
ENDBRANCH   1   5
TORSDOF 4
ENDMDL
MODEL 5
REMARK VINA RESULT:      -4.2      2.037      2.533
REMARK  4 active torsions:
REMARK  status: ('A' for Active; 'I' for Inactive)
REMARK    1  A    between atoms: C_2  and  C_4 
REMARK    2  A    between atoms: C_4  and  C_5 
REMARK    3  A    between atoms: C_5  and  C_6 
REMARK    4  A    between atoms: C_6  and  O_7 
ROOT
HETATM    1  C   LIG     1      17.125  35.235  23.546  1.00  0.00     0.006 C 
ENDROOT
BRANCH   1   2
HETATM    2  C   LIG     1      17.130  35.829  24.974  1.00  0.00    -0.023 C 
HETATM    3  C   LIG     1      17.801  37.211  25.018  1.00  0.00     0.009 C 
HETATM    4  C   LIG     1      17.845  34.873  25.937  1.00  0.00     0.009 C 
ENDBRANCH   1   2
BRANCH   1   5
HETATM    5  C   LIG     1      16.440  36.154  22.523  1.00  0.00     0.026 C 
BRANCH   5   6
HETATM    6  C   LIG     1      15.722  35.340  21.447  1.00  0.00     0.164 C 
BRANCH   6   7
HETATM    7  O   LIG     1      14.395  35.773  21.340  1.00  0.00    -0.401 OA
HETATM    8  H   LIG     1      14.419  36.761  21.431  1.00  0.00     0.209 HD
ENDBRANCH   6   7
ENDBRANCH   5   6
ENDBRANCH   1   5
TORSDOF 4
ENDMDL
MODEL 6
REMARK VINA RESULT:      -4.2      2.274      3.718
REMARK  4 active torsions:
REMARK  status: ('A' for Active; 'I' for Inactive)
REMARK    1  A    between atoms: C_2  and  C_4 
REMARK    2  A    between atoms: C_4  and  C_5 
REMARK    3  A    between atoms: C_5  and  C_6 
REMARK    4  A    between atoms: C_6  and  O_7 
ROOT
HETATM    1  C   LIG     1      16.991  35.258  23.032  1.00  0.00     0.006 C 
ENDROOT
BRANCH   1   2
HETATM    2  C   LIG     1      16.493  36.174  21.890  1.00  0.00    -0.023 C 
HETATM    3  C   LIG     1      15.151  35.697  21.315  1.00  0.00     0.009 C 
HETATM    4  C   LIG     1      17.544  36.238  20.773  1.00  0.00     0.009 C 
ENDBRANCH   1   2
BRANCH   1   5
HETATM    5  C   LIG     1      17.221  36.019  24.346  1.00  0.00     0.026 C 
BRANCH   5   6
HETATM    6  C   LIG     1      16.761  37.472  24.230  1.00  0.00     0.164 C 
BRANCH   6   7
HETATM    7  O   LIG     1      16.771  38.069  25.496  1.00  0.00    -0.401 OA
HETATM    8  H   LIG     1      15.842  38.004  25.838  1.00  0.00     0.209 HD
ENDBRANCH   6   7
ENDBRANCH   5   6
ENDBRANCH   1   5
TORSDOF 4
ENDMDL
MODEL 7
REMARK VINA RESULT:      -4.2      2.613      3.568
REMARK  4 active torsions:
REMARK  status: ('A' for Active; 'I' for Inactive)
REMARK    1  A    between atoms: C_2  and  C_4 
REMARK    2  A    between atoms: C_4  and  C_5 
REMARK    3  A    between atoms: C_5  and  C_6 
REMARK    4  A    between atoms: C_6  and  O_7 
ROOT
HETATM    1  C   LIG     1      16.916  35.724  22.856  1.00  0.00     0.006 C 
ENDROOT
BRANCH   1   2
HETATM    2  C   LIG     1      16.835  37.265  22.964  1.00  0.00    -0.023 C 
HETATM    3  C   LIG     1      17.554  37.960  21.797  1.00  0.00     0.009 C 
HETATM    4  C   LIG     1      17.437  37.730  24.296  1.00  0.00     0.009 C 
ENDBRANCH   1   2
BRANCH   1   5
HETATM    5  C   LIG     1      16.616  35.211  21.440  1.00  0.00     0.026 C 
BRANCH   5   6
HETATM    6  C   LIG     1      15.214  34.609  21.358  1.00  0.00     0.164 C 
BRANCH   6   7
HETATM    7  O   LIG     1      14.275  35.631  21.181  1.00  0.00    -0.401 OA
HETATM    8  H   LIG     1      14.795  36.471  21.091  1.00  0.00     0.209 HD
ENDBRANCH   6   7
ENDBRANCH   5   6
ENDBRANCH   1   5
TORSDOF 4
ENDMDL
MODEL 8
REMARK VINA RESULT:      -4.1      1.937      3.652
REMARK  4 active torsions:
REMARK  status: ('A' for Active; 'I' for Inactive)
REMARK    1  A    between atoms: C_2  and  C_4 
REMARK    2  A    between atoms: C_4  and  C_5 
REMARK    3  A    between atoms: C_5  and  C_6 
REMARK    4  A    between atoms: C_6  and  O_7 
ROOT
HETATM    1  C   LIG     1      18.086  38.195  24.218  1.00  0.00     0.006 C 
ENDROOT
BRANCH   1   2
HETATM    2  C   LIG     1      17.162  38.189  22.978  1.00  0.00    -0.023 C 
HETATM    3  C   LIG     1      16.804  36.761  22.536  1.00  0.00     0.009 C 
HETATM    4  C   LIG     1      17.833  38.939  21.820  1.00  0.00     0.009 C 
ENDBRANCH   1   2
BRANCH   1   5
HETATM    5  C   LIG     1      17.343  37.833  25.513  1.00  0.00     0.026 C 
BRANCH   5   6
HETATM    6  C   LIG     1      18.056  36.706  26.260  1.00  0.00     0.164 C 
BRANCH   6   7
HETATM    7  O   LIG     1      17.284  35.540  26.194  1.00  0.00    -0.401 OA
HETATM    8  H   LIG     1      17.670  34.995  25.460  1.00  0.00     0.209 HD
ENDBRANCH   6   7
ENDBRANCH   5   6
ENDBRANCH   1   5
TORSDOF 4
ENDMDL
MODEL 9
REMARK VINA RESULT:      -4.1      2.264      4.117
REMARK  4 active torsions:
REMARK  status: ('A' for Active; 'I' for Inactive)
REMARK    1  A    between atoms: C_2  and  C_4 
REMARK    2  A    between atoms: C_4  and  C_5 
REMARK    3  A    between atoms: C_5  and  C_6 
REMARK    4  A    between atoms: C_6  and  O_7 
ROOT
HETATM    1  C   LIG     1      16.880  38.496  22.614  1.00  0.00     0.006 C 
ENDROOT
BRANCH   1   2
HETATM    2  C   LIG     1      18.110  38.147  21.744  1.00  0.00    -0.023 C 
HETATM    3  C   LIG     1      18.545  39.330  20.865  1.00  0.00     0.009 C 
HETATM    4  C   LIG     1      17.799  36.931  20.861  1.00  0.00     0.009 C 
ENDBRANCH   1   2
BRANCH   1   5
HETATM    5  C   LIG     1      16.738  37.578  23.837  1.00  0.00     0.026 C 
BRANCH   5   6
HETATM    6  C   LIG     1      17.448  38.169  25.055  1.00  0.00     0.164 C 
BRANCH   6   7
HETATM    7  O   LIG     1      17.227  37.350  26.168  1.00  0.00    -0.401 OA
HETATM    8  H   LIG     1      18.048  36.804  26.276  1.00  0.00     0.209 HD
ENDBRANCH   6   7
ENDBRANCH   5   6
ENDBRANCH   1   5
TORSDOF 4
ENDMDL
MODEL 10
REMARK VINA RESULT:      -4.1      3.637      4.622
REMARK  4 active torsions:
REMARK  status: ('A' for Active; 'I' for Inactive)
REMARK    1  A    between atoms: C_2  and  C_4 
REMARK    2  A    between atoms: C_4  and  C_5 
REMARK    3  A    between atoms: C_5  and  C_6 
REMARK    4  A    between atoms: C_6  and  O_7 
ROOT
HETATM    1  C   LIG     1      16.477  36.611  21.750  1.00  0.00     0.006 C 
ENDROOT
BRANCH   1   2
HETATM    2  C   LIG     1      17.851  37.248  21.441  1.00  0.00    -0.023 C 
HETATM    3  C   LIG     1      17.793  38.783  21.480  1.00  0.00     0.009 C 
HETATM    4  C   LIG     1      18.348  36.781  20.066  1.00  0.00     0.009 C 
ENDBRANCH   1   2
BRANCH   1   5
HETATM    5  C   LIG     1      16.557  35.088  21.937  1.00  0.00     0.026 C 
BRANCH   5   6
HETATM    6  C   LIG     1      15.412  34.383  21.210  1.00  0.00     0.164 C 
BRANCH   6   7
HETATM    7  O   LIG     1      14.203  35.020  21.513  1.00  0.00    -0.401 OA
HETATM    8  H   LIG     1      14.445  35.903  21.894  1.00  0.00     0.209 HD
ENDBRANCH   6   7
ENDBRANCH   5   6
ENDBRANCH   1   5
TORSDOF 4
ENDMDL
MODEL 11
REMARK VINA RESULT:      -4.1     10.786     11.930
REMARK  4 active torsions:
REMARK  status: ('A' for Active; 'I' for Inactive)
REMARK    1  A    between atoms: C_2  and  C_4 
REMARK    2  A    between atoms: C_4  and  C_5 
REMARK    3  A    between atoms: C_5  and  C_6 
REMARK    4  A    between atoms: C_6  and  O_7 
ROOT
HETATM    1  C   LIG     1      13.555  30.361  14.933  1.00  0.00     0.006 C 
ENDROOT
BRANCH   1   2
HETATM    2  C   LIG     1      15.035  30.133  14.545  1.00  0.00    -0.023 C 
HETATM    3  C   LIG     1      15.552  31.223  13.593  1.00  0.00     0.009 C 
HETATM    4  C   LIG     1      15.200  28.753  13.895  1.00  0.00     0.009 C 
ENDBRANCH   1   2
BRANCH   1   5
HETATM    5  C   LIG     1      13.360  30.548  16.445  1.00  0.00     0.026 C 
BRANCH   5   6
HETATM    6  C   LIG     1      14.008  31.845  16.928  1.00  0.00     0.164 C 
BRANCH   6   7
HETATM    7  O   LIG     1      13.844  31.963  18.313  1.00  0.00    -0.401 OA
HETATM    8  H   LIG     1      14.317  32.794  18.577  1.00  0.00     0.209 HD
ENDBRANCH   6   7
ENDBRANCH   5   6
ENDBRANCH   1   5
TORSDOF 4
ENDMDL
MODEL 12
REMARK VINA RESULT:      -4.0      9.656     10.826
REMARK  4 active torsions:
REMARK  status: ('A' for Active; 'I' for Inactive)
REMARK    1  A    between atoms: C_2  and  C_4 
REMARK    2  A    between atoms: C_4  and  C_5 
REMARK    3  A    between atoms: C_5  and  C_6 
REMARK    4  A    between atoms: C_6  and  O_7 
ROOT
HETATM    1  C   LIG     1      15.089  31.961  15.818  1.00  0.00     0.006 C 
ENDROOT
BRANCH   1   2
HETATM    2  C   LIG     1      14.548  30.581  15.377  1.00  0.00    -0.023 C 
HETATM    3  C   LIG     1      14.886  30.276  13.909  1.00  0.00     0.009 C 
HETATM    4  C   LIG     1      13.029  30.523  15.583  1.00  0.00     0.009 C 
ENDBRANCH   1   2
BRANCH   1   5
HETATM    5  C   LIG     1      14.267  32.585  16.956  1.00  0.00     0.026 C 
BRANCH   5   6
HETATM    6  C   LIG     1      14.938  32.356  18.310  1.00  0.00     0.164 C 
BRANCH   6   7
HETATM    7  O   LIG     1      14.140  31.512  19.091  1.00  0.00    -0.401 OA
HETATM    8  H   LIG     1      14.085  31.936  19.987  1.00  0.00     0.209 HD
ENDBRANCH   6   7
ENDBRANCH   5   6
ENDBRANCH   1   5
TORSDOF 4
ENDMDL
MODEL 13
REMARK VINA RESULT:      -4.0      9.673     10.807
REMARK  4 active torsions:
REMARK  status: ('A' for Active; 'I' for Inactive)
REMARK    1  A    between atoms: C_2  and  C_4 
REMARK    2  A    between atoms: C_4  and  C_5 
REMARK    3  A    between atoms: C_5  and  C_6 
REMARK    4  A    between atoms: C_6  and  O_7 
ROOT
HETATM    1  C   LIG     1      15.199  31.903  15.501  1.00  0.00     0.006 C 
ENDROOT
BRANCH   1   2
HETATM    2  C   LIG     1      14.471  30.540  15.457  1.00  0.00    -0.023 C 
HETATM    3  C   LIG     1      14.579  29.877  14.074  1.00  0.00     0.009 C 
HETATM    4  C   LIG     1      12.995  30.721  15.834  1.00  0.00     0.009 C 
ENDBRANCH   1   2
BRANCH   1   5
HETATM    5  C   LIG     1      15.266  32.495  16.917  1.00  0.00     0.026 C 
BRANCH   5   6
HETATM    6  C   LIG     1      15.008  34.002  16.897  1.00  0.00     0.164 C 
BRANCH   6   7
HETATM    7  O   LIG     1      16.062  34.648  16.241  1.00  0.00    -0.401 OA
HETATM    8  H   LIG     1      15.647  35.198  15.528  1.00  0.00     0.209 HD
ENDBRANCH   6   7
ENDBRANCH   5   6
ENDBRANCH   1   5
TORSDOF 4
ENDMDL
MODEL 14
REMARK VINA RESULT:      -3.8      3.434      4.084
REMARK  4 active torsions:
REMARK  status: ('A' for Active; 'I' for Inactive)
REMARK    1  A    between atoms: C_2  and  C_4 
REMARK    2  A    between atoms: C_4  and  C_5 
REMARK    3  A    between atoms: C_5  and  C_6 
REMARK    4  A    between atoms: C_6  and  O_7 
ROOT
HETATM    1  C   LIG     1      17.484  37.510  21.653  1.00  0.00     0.006 C 
ENDROOT
BRANCH   1   2
HETATM    2  C   LIG     1      16.627  36.237  21.459  1.00  0.00    -0.023 C 
HETATM    3  C   LIG     1      15.144  36.492  21.769  1.00  0.00     0.009 C 
HETATM    4  C   LIG     1      17.157  35.107  22.351  1.00  0.00     0.009 C 
ENDBRANCH   1   2
BRANCH   1   5
HETATM    5  C   LIG     1      18.469  37.744  20.498  1.00  0.00     0.026 C 
BRANCH   5   6
HETATM    6  C   LIG     1      19.184  39.086  20.648  1.00  0.00     0.164 C 
BRANCH   6   7
HETATM    7  O   LIG     1      18.718  39.739  21.795  1.00  0.00    -0.401 OA
HETATM    8  H   LIG     1      18.912  40.703  21.662  1.00  0.00     0.209 HD
ENDBRANCH   6   7
ENDBRANCH   5   6
ENDBRANCH   1   5
TORSDOF 4
ENDMDL
MODEL 15
REMARK VINA RESULT:      -3.8     11.028     11.728
REMARK  4 active torsions:
REMARK  status: ('A' for Active; 'I' for Inactive)
REMARK    1  A    between atoms: C_2  and  C_4 
REMARK    2  A    between atoms: C_4  and  C_5 
REMARK    3  A    between atoms: C_5  and  C_6 
REMARK    4  A    between atoms: C_6  and  O_7 
ROOT
HETATM    1  C   LIG     1      15.246  32.095  15.322  1.00  0.00     0.006 C 
ENDROOT
BRANCH   1   2
HETATM    2  C   LIG     1      14.712  30.644  15.312  1.00  0.00    -0.023 C 
HETATM    3  C   LIG     1      14.814  30.006  13.918  1.00  0.00     0.009 C 
HETATM    4  C   LIG     1      13.254  30.618  15.790  1.00  0.00     0.009 C 
ENDBRANCH   1   2
BRANCH   1   5
HETATM    5  C   LIG     1      16.779  32.165  15.242  1.00  0.00     0.026 C 
BRANCH   5   6
HETATM    6  C   LIG     1      17.230  33.118  14.136  1.00  0.00     0.164 C 
BRANCH   6   7
HETATM    7  O   LIG     1      16.338  33.042  13.060  1.00  0.00    -0.401 OA
HETATM    8  H   LIG     1      15.620  33.698  13.249  1.00  0.00     0.209 HD
ENDBRANCH   6   7
ENDBRANCH   5   6
ENDBRANCH   1   5
TORSDOF 4
ENDMDL
MODEL 16
REMARK VINA RESULT:      -3.7     11.454     12.440
REMARK  4 active torsions:
REMARK  status: ('A' for Active; 'I' for Inactive)
REMARK    1  A    between atoms: C_2  and  C_4 
REMARK    2  A    between atoms: C_4  and  C_5 
REMARK    3  A    between atoms: C_5  and  C_6 
REMARK    4  A    between atoms: C_6  and  O_7 
ROOT
HETATM    1  C   LIG     1      14.923  30.924  14.876  1.00  0.00     0.006 C 
ENDROOT
BRANCH   1   2
HETATM    2  C   LIG     1      14.364  31.260  16.278  1.00  0.00    -0.023 C 
HETATM    3  C   LIG     1      12.843  31.053  16.353  1.00  0.00     0.009 C 
HETATM    4  C   LIG     1      14.711  32.708  16.648  1.00  0.00     0.009 C 
ENDBRANCH   1   2
BRANCH   1   5
HETATM    5  C   LIG     1      14.238  29.705  14.240  1.00  0.00     0.026 C 
BRANCH   5   6
HETATM    6  C   LIG     1      15.261  28.641  13.846  1.00  0.00     0.164 C 
BRANCH   6   7
HETATM    7  O   LIG     1      14.609  27.575  13.216  1.00  0.00    -0.401 OA
HETATM    8  H   LIG     1      13.848  27.331  13.804  1.00  0.00     0.209 HD
ENDBRANCH   6   7
ENDBRANCH   5   6
ENDBRANCH   1   5
TORSDOF 4
ENDMDL
MODEL 17
REMARK VINA RESULT:      -3.7     10.401     11.355
REMARK  4 active torsions:
REMARK  status: ('A' for Active; 'I' for Inactive)
REMARK    1  A    between atoms: C_2  and  C_4 
REMARK    2  A    between atoms: C_4  and  C_5 
REMARK    3  A    between atoms: C_5  and  C_6 
REMARK    4  A    between atoms: C_6  and  O_7 
ROOT
HETATM    1  C   LIG     1      13.482  30.979  16.488  1.00  0.00     0.006 C 
ENDROOT
BRANCH   1   2
HETATM    2  C   LIG     1      14.114  32.221  17.159  1.00  0.00    -0.023 C 
HETATM    3  C   LIG     1      15.282  32.786  16.335  1.00  0.00     0.009 C 
HETATM    4  C   LIG     1      14.598  31.865  18.571  1.00  0.00     0.009 C 
ENDBRANCH   1   2
BRANCH   1   5
HETATM    5  C   LIG     1      14.239  30.536  15.227  1.00  0.00     0.026 C 
BRANCH   5   6
HETATM    6  C   LIG     1      13.434  29.506  14.434  1.00  0.00     0.164 C 
BRANCH   6   7
HETATM    7  O   LIG     1      14.302  28.732  13.655  1.00  0.00    -0.401 OA
HETATM    8  H   LIG     1      15.215  28.907  14.003  1.00  0.00     0.209 HD
ENDBRANCH   6   7
ENDBRANCH   5   6
ENDBRANCH   1   5
TORSDOF 4
ENDMDL
MODEL 18
REMARK VINA RESULT:      -3.5     10.023     10.897
REMARK  4 active torsions:
REMARK  status: ('A' for Active; 'I' for Inactive)
REMARK    1  A    between atoms: C_2  and  C_4 
REMARK    2  A    between atoms: C_4  and  C_5 
REMARK    3  A    between atoms: C_5  and  C_6 
REMARK    4  A    between atoms: C_6  and  O_7 
ROOT
HETATM    1  C   LIG     1      15.094  32.743  16.228  1.00  0.00     0.006 C 
ENDROOT
BRANCH   1   2
HETATM    2  C   LIG     1      16.175  32.017  15.395  1.00  0.00    -0.023 C 
HETATM    3  C   LIG     1      17.238  32.991  14.861  1.00  0.00     0.009 C 
HETATM    4  C   LIG     1      15.521  31.269  14.226  1.00  0.00     0.009 C 
ENDBRANCH   1   2
BRANCH   1   5
HETATM    5  C   LIG     1      14.315  31.791  17.149  1.00  0.00     0.026 C 
BRANCH   5   6
HETATM    6  C   LIG     1      12.838  31.738  16.762  1.00  0.00     0.164 C 
BRANCH   6   7
HETATM    7  O   LIG     1      12.434  30.404  16.640  1.00  0.00    -0.401 OA
HETATM    8  H   LIG     1      11.644  30.299  17.232  1.00  0.00     0.209 HD
ENDBRANCH   6   7
ENDBRANCH   5   6
ENDBRANCH   1   5
TORSDOF 4
ENDMDL
MODEL 19
REMARK VINA RESULT:      -3.5     10.856     11.967
REMARK  4 active torsions:
REMARK  status: ('A' for Active; 'I' for Inactive)
REMARK    1  A    between atoms: C_2  and  C_4 
REMARK    2  A    between atoms: C_4  and  C_5 
REMARK    3  A    between atoms: C_5  and  C_6 
REMARK    4  A    between atoms: C_6  and  O_7 
ROOT
HETATM    1  C   LIG     1      15.770  31.189  14.430  1.00  0.00     0.006 C 
ENDROOT
BRANCH   1   2
HETATM    2  C   LIG     1      16.363  32.180  15.459  1.00  0.00    -0.023 C 
HETATM    3  C   LIG     1      15.267  32.887  16.272  1.00  0.00     0.009 C 
HETATM    4  C   LIG     1      17.233  33.221  14.744  1.00  0.00     0.009 C 
ENDBRANCH   1   2
BRANCH   1   5
HETATM    5  C   LIG     1      14.451  30.560  14.903  1.00  0.00     0.026 C 
BRANCH   5   6
HETATM    6  C   LIG     1      14.173  29.248  14.170  1.00  0.00     0.164 C 
BRANCH   6   7
HETATM    7  O   LIG     1      12.790  29.041  14.090  1.00  0.00    -0.401 OA
HETATM    8  H   LIG     1      12.442  29.739  13.477  1.00  0.00     0.209 HD
ENDBRANCH   6   7
ENDBRANCH   5   6
ENDBRANCH   1   5
TORSDOF 4
ENDMDL
MODEL 20
REMARK VINA RESULT:      -3.4      9.561     10.577
REMARK  4 active torsions:
REMARK  status: ('A' for Active; 'I' for Inactive)
REMARK    1  A    between atoms: C_2  and  C_4 
REMARK    2  A    between atoms: C_4  and  C_5 
REMARK    3  A    between atoms: C_5  and  C_6 
REMARK    4  A    between atoms: C_6  and  O_7 
ROOT
HETATM    1  C   LIG     1      15.254  33.055  16.344  1.00  0.00     0.006 C 
ENDROOT
BRANCH   1   2
HETATM    2  C   LIG     1      14.181  32.291  17.155  1.00  0.00    -0.023 C 
HETATM    3  C   LIG     1      14.673  31.936  18.566  1.00  0.00     0.009 C 
HETATM    4  C   LIG     1      13.772  31.014  16.410  1.00  0.00     0.009 C 
ENDBRANCH   1   2
BRANCH   1   5
HETATM    5  C   LIG     1      16.225  32.116  15.612  1.00  0.00     0.026 C 
BRANCH   5   6
HETATM    6  C   LIG     1      16.331  32.480  14.131  1.00  0.00     0.164 C 
BRANCH   6   7
HETATM    7  O   LIG     1      16.146  31.331  13.353  1.00  0.00    -0.401 OA
HETATM    8  H   LIG     1      16.572  31.520  12.477  1.00  0.00     0.209 HD
ENDBRANCH   6   7
ENDBRANCH   5   6
ENDBRANCH   1   5
TORSDOF 4
ENDMDL
