REMARK  4 active torsions:
REMARK  status: ('A' for Active; 'I' for Inactive)
REMARK    1  A    between atoms: C_2  and  C_4 
REMARK    2  A    between atoms: C_4  and  C_5 
REMARK    3  A    between atoms: C_5  and  C_6 
REMARK    4  A    between atoms: C_6  and  O_7 
ROOT
HETATM    1  C   LIG     1       0.085  -0.160   0.496  1.00  0.00     0.006 C 
ENDROOT
BRANCH   1   2
HETATM    2  C   LIG     1      -1.308  -0.263  -0.167  1.00  0.00    -0.023 C 
HETATM    3  C   LIG     1      -1.705   1.043  -0.873  1.00  0.00     0.009 C 
HETATM    4  C   LIG     1      -2.364  -0.627   0.885  1.00  0.00     0.009 C 
ENDBRANCH   1   2
BRANCH   1   5
HETATM    5  C   LIG     1       1.224  -0.050  -0.529  1.00  0.00     0.026 C 
BRANCH   5   6
HETATM    6  C   LIG     1       2.589  -0.107   0.156  1.00  0.00     0.164 C 
BRANCH   6   7
HETATM    7  O   LIG     1       3.600   0.012  -0.805  1.00  0.00    -0.401 OA
HETATM    8  H   LIG     1       4.458  -0.029  -0.309  1.00  0.00     0.209 HD
ENDBRANCH   6   7
ENDBRANCH   5   6
ENDBRANCH   1   5
TORSDOF 4
