MODEL 1
REMARK VINA RESULT:      -4.3      0.000      0.000
REMARK  0 active torsions:
REMARK  status: ('A' for Active; 'I' for Inactive)
ROOT
HETATM    1  C   LIG     1      18.289  38.307  23.698  1.00  0.00     0.309 C 
HETATM    2  N   LIG     1      17.141  37.856  24.501  1.00  0.00     0.084 N 
HETATM    3  C   LIG     1      16.463  36.679  23.914  1.00  0.00     0.271 C 
HETATM    4  C   LIG     1      17.257  35.377  24.107  1.00  0.00     0.030 C 
HETATM    5  C   LIG     1      17.586  35.157  25.583  1.00  0.00     0.003 C 
HETATM    6  C   LIG     1      18.304  36.374  26.164  1.00  0.00     0.030 C 
HETATM    7  C   LIG     1      17.487  37.654  25.924  1.00  0.00     0.271 C 
ENDROOT
TORSDOF 0
ENDMDL
MODEL 2
REMARK VINA RESULT:      -4.1      2.021      3.785
REMARK  0 active torsions:
REMARK  status: ('A' for Active; 'I' for Inactive)
ROOT
HETATM    1  C   LIG     1      16.946  37.137  24.377  1.00  0.00     0.309 C 
HETATM    2  N   LIG     1      16.280  37.727  23.204  1.00  0.00     0.084 N 
HETATM    3  C   LIG     1      16.913  38.989  22.764  1.00  0.00     0.271 C 
HETATM    4  C   LIG     1      18.249  38.762  22.036  1.00  0.00     0.030 C 
HETATM    5  C   LIG     1      18.072  37.787  20.872  1.00  0.00     0.003 C 
HETATM    6  C   LIG     1      17.436  36.484  21.351  1.00  0.00     0.030 C 
HETATM    7  C   LIG     1      16.119  36.761  22.096  1.00  0.00     0.271 C 
ENDROOT
TORSDOF 0
ENDMDL
MODEL 3
REMARK VINA RESULT:      -4.1      1.569      1.861
REMARK  0 active torsions:
REMARK  status: ('A' for Active; 'I' for Inactive)
ROOT
HETATM    1  C   LIG     1      17.614  38.317  22.065  1.00  0.00     0.309 C 
HETATM    2  N   LIG     1      16.416  37.699  22.655  1.00  0.00     0.084 N 
HETATM    3  C   LIG     1      16.062  36.414  22.012  1.00  0.00     0.271 C 
HETATM    4  C   LIG     1      16.998  35.266  22.422  1.00  0.00     0.030 C 
HETATM    5  C   LIG     1      17.058  35.133  23.943  1.00  0.00     0.003 C 
HETATM    6  C   LIG     1      17.445  36.464  24.586  1.00  0.00     0.030 C 
HETATM    7  C   LIG     1      16.500  37.586  24.127  1.00  0.00     0.271 C 
ENDROOT
TORSDOF 0
ENDMDL
MODEL 4
REMARK VINA RESULT:      -4.1      4.216      5.507
REMARK  0 active torsions:
REMARK  status: ('A' for Active; 'I' for Inactive)
ROOT
HETATM    1  C   LIG     1      18.917  38.971  18.258  1.00  0.00     0.309 C 
HETATM    2  N   LIG     1      19.622  38.389  19.412  1.00  0.00     0.084 N 
HETATM    3  C   LIG     1      19.391  39.146  20.662  1.00  0.00     0.271 C 
HETATM    4  C   LIG     1      17.990  38.910  21.251  1.00  0.00     0.030 C 
HETATM    5  C   LIG     1      17.728  37.416  21.443  1.00  0.00     0.003 C 
HETATM    6  C   LIG     1      17.952  36.657  20.136  1.00  0.00     0.030 C 
HETATM    7  C   LIG     1      19.353  36.943  19.572  1.00  0.00     0.271 C 
ENDROOT
TORSDOF 0
ENDMDL
MODEL 5
REMARK VINA RESULT:      -4.0      0.945      2.250
REMARK  0 active torsions:
REMARK  status: ('A' for Active; 'I' for Inactive)
ROOT
HETATM    1  C   LIG     1      15.708  37.726  23.426  1.00  0.00     0.309 C 
HETATM    2  N   LIG     1      17.120  37.312  23.369  1.00  0.00     0.084 N 
HETATM    3  C   LIG     1      17.943  37.950  24.420  1.00  0.00     0.271 C 
HETATM    4  C   LIG     1      17.702  37.346  25.813  1.00  0.00     0.030 C 
HETATM    5  C   LIG     1      17.901  35.830  25.787  1.00  0.00     0.003 C 
HETATM    6  C   LIG     1      17.027  35.190  24.710  1.00  0.00     0.030 C 
HETATM    7  C   LIG     1      17.281  35.843  23.342  1.00  0.00     0.271 C 
ENDROOT
TORSDOF 0
ENDMDL
MODEL 6
REMARK VINA RESULT:      -3.9      2.611      3.688
REMARK  0 active torsions:
REMARK  status: ('A' for Active; 'I' for Inactive)
ROOT
HETATM    1  C   LIG     1      15.488  37.787  22.893  1.00  0.00     0.309 C 
HETATM    2  N   LIG     1      16.841  37.234  23.064  1.00  0.00     0.084 N 
HETATM    3  C   LIG     1      17.007  35.921  22.402  1.00  0.00     0.271 C 
HETATM    4  C   LIG     1      17.122  36.036  20.873  1.00  0.00     0.030 C 
HETATM    5  C   LIG     1      18.239  37.005  20.485  1.00  0.00     0.003 C 
HETATM    6  C   LIG     1      18.037  38.360  21.162  1.00  0.00     0.030 C 
HETATM    7  C   LIG     1      17.900  38.193  22.684  1.00  0.00     0.271 C 
ENDROOT
TORSDOF 0
ENDMDL
MODEL 7
REMARK VINA RESULT:      -3.8      2.110      3.448
REMARK  0 active torsions:
REMARK  status: ('A' for Active; 'I' for Inactive)
ROOT
HETATM    1  C   LIG     1      15.355  36.085  21.621  1.00  0.00     0.309 C 
HETATM    2  N   LIG     1      16.786  35.997  21.958  1.00  0.00     0.084 N 
HETATM    3  C   LIG     1      17.599  37.015  21.258  1.00  0.00     0.271 C 
HETATM    4  C   LIG     1      17.428  38.424  21.849  1.00  0.00     0.030 C 
HETATM    5  C   LIG     1      17.709  38.419  23.351  1.00  0.00     0.003 C 
HETATM    6  C   LIG     1      16.844  37.376  24.058  1.00  0.00     0.030 C 
HETATM    7  C   LIG     1      17.027  35.991  23.417  1.00  0.00     0.271 C 
ENDROOT
TORSDOF 0
ENDMDL
MODEL 8
REMARK VINA RESULT:      -3.3      1.410      2.911
REMARK  0 active torsions:
REMARK  status: ('A' for Active; 'I' for Inactive)
ROOT
HETATM    1  C   LIG     1      17.155  38.380  25.587  1.00  0.00     0.309 C 
HETATM    2  N   LIG     1      18.018  37.597  24.687  1.00  0.00     0.084 N 
HETATM    3  C   LIG     1      17.289  36.503  24.009  1.00  0.00     0.271 C 
HETATM    4  C   LIG     1      16.374  37.006  22.881  1.00  0.00     0.030 C 
HETATM    5  C   LIG     1      17.160  37.858  21.885  1.00  0.00     0.003 C 
HETATM    6  C   LIG     1      17.887  38.994  22.602  1.00  0.00     0.030 C 
HETATM    7  C   LIG     1      18.768  38.447  23.737  1.00  0.00     0.271 C 
ENDROOT
TORSDOF 0
ENDMDL
MODEL 9
REMARK VINA RESULT:      -3.3     13.291     14.127
REMARK  0 active torsions:
REMARK  status: ('A' for Active; 'I' for Inactive)
ROOT
HETATM    1  C   LIG     1      18.690  35.077  10.200  1.00  0.00     0.309 C 
HETATM    2  N   LIG     1      19.496  33.858  10.375  1.00  0.00     0.084 N 
HETATM    3  C   LIG     1      20.948  34.113  10.252  1.00  0.00     0.271 C 
HETATM    4  C   LIG     1      21.536  34.818  11.486  1.00  0.00     0.030 C 
HETATM    5  C   LIG     1      21.209  34.039  12.760  1.00  0.00     0.003 C 
HETATM    6  C   LIG     1      19.704  33.805  12.879  1.00  0.00     0.030 C 
HETATM    7  C   LIG     1      19.157  33.124  11.613  1.00  0.00     0.271 C 
ENDROOT
TORSDOF 0
ENDMDL
MODEL 10
REMARK VINA RESULT:      -3.3     13.235     14.194
REMARK  0 active torsions:
REMARK  status: ('A' for Active; 'I' for Inactive)
ROOT
HETATM    1  C   LIG     1      19.731  32.211  10.513  1.00  0.00     0.309 C 
HETATM    2  N   LIG     1      19.305  33.458  11.170  1.00  0.00     0.084 N 
HETATM    3  C   LIG     1      19.655  33.493  12.607  1.00  0.00     0.271 C 
HETATM    4  C   LIG     1      21.153  33.740  12.849  1.00  0.00     0.030 C 
HETATM    5  C   LIG     1      21.617  35.006  12.128  1.00  0.00     0.003 C 
HETATM    6  C   LIG     1      21.265  34.941  10.643  1.00  0.00     0.030 C 
HETATM    7  C   LIG     1      19.764  34.665  10.450  1.00  0.00     0.271 C 
ENDROOT
TORSDOF 0
ENDMDL
MODEL 11
REMARK VINA RESULT:      -3.3      4.113      5.379
REMARK  0 active torsions:
REMARK  status: ('A' for Active; 'I' for Inactive)
ROOT
HETATM    1  C   LIG     1      20.128  36.609  19.584  1.00  0.00     0.309 C 
HETATM    2  N   LIG     1      18.826  37.215  19.258  1.00  0.00     0.084 N 
HETATM    3  C   LIG     1      17.747  36.768  20.166  1.00  0.00     0.271 C 
HETATM    4  C   LIG     1      17.831  37.417  21.557  1.00  0.00     0.030 C 
HETATM    5  C   LIG     1      17.872  38.941  21.441  1.00  0.00     0.003 C 
HETATM    6  C   LIG     1      19.006  39.382  20.517  1.00  0.00     0.030 C 
HETATM    7  C   LIG     1      18.896  38.688  19.150  1.00  0.00     0.271 C 
ENDROOT
TORSDOF 0
ENDMDL
MODEL 12
REMARK VINA RESULT:      -3.3      2.186      3.359
REMARK  0 active torsions:
REMARK  status: ('A' for Active; 'I' for Inactive)
ROOT
HETATM    1  C   LIG     1      17.378  36.007  20.890  1.00  0.00     0.309 C 
HETATM    2  N   LIG     1      16.346  35.689  21.891  1.00  0.00     0.084 N 
HETATM    3  C   LIG     1      16.921  35.267  23.187  1.00  0.00     0.271 C 
HETATM    4  C   LIG     1      17.504  36.440  23.991  1.00  0.00     0.030 C 
HETATM    5  C   LIG     1      16.461  37.543  24.173  1.00  0.00     0.003 C 
HETATM    6  C   LIG     1      15.896  37.979  22.822  1.00  0.00     0.030 C 
HETATM    7  C   LIG     1      15.349  36.771  22.044  1.00  0.00     0.271 C 
ENDROOT
TORSDOF 0
ENDMDL
MODEL 13
REMARK VINA RESULT:      -3.2      2.487      3.881
REMARK  0 active torsions:
REMARK  status: ('A' for Active; 'I' for Inactive)
ROOT
HETATM    1  C   LIG     1      17.094  35.157  24.002  1.00  0.00     0.309 C 
HETATM    2  N   LIG     1      17.278  35.703  22.648  1.00  0.00     0.084 N 
HETATM    3  C   LIG     1      16.860  34.756  21.591  1.00  0.00     0.271 C 
HETATM    4  C   LIG     1      15.332  34.643  21.463  1.00  0.00     0.030 C 
HETATM    5  C   LIG     1      14.702  36.021  21.263  1.00  0.00     0.003 C 
HETATM    6  C   LIG     1      15.129  36.977  22.376  1.00  0.00     0.030 C 
HETATM    7  C   LIG     1      16.662  37.037  22.484  1.00  0.00     0.271 C 
ENDROOT
TORSDOF 0
ENDMDL
MODEL 14
REMARK VINA RESULT:      -3.2      3.303      4.998
REMARK  0 active torsions:
REMARK  status: ('A' for Active; 'I' for Inactive)
ROOT
HETATM    1  C   LIG     1      17.620  36.164  22.325  1.00  0.00     0.309 C 
HETATM    2  N   LIG     1      17.163  37.097  21.281  1.00  0.00     0.084 N 
HETATM    3  C   LIG     1      17.475  38.507  21.601  1.00  0.00     0.271 C 
HETATM    4  C   LIG     1      18.963  38.845  21.414  1.00  0.00     0.030 C 
HETATM    5  C   LIG     1      19.430  38.472  20.007  1.00  0.00     0.003 C 
HETATM    6  C   LIG     1      19.118  37.008  19.705  1.00  0.00     0.030 C 
HETATM    7  C   LIG     1      17.626  36.710  19.931  1.00  0.00     0.271 C 
ENDROOT
TORSDOF 0
ENDMDL
MODEL 15
REMARK VINA RESULT:      -3.2      2.843      4.114
REMARK  0 active torsions:
REMARK  status: ('A' for Active; 'I' for Inactive)
ROOT
HETATM    1  C   LIG     1      17.944  37.772  21.112  1.00  0.00     0.309 C 
HETATM    2  N   LIG     1      17.562  36.650  21.984  1.00  0.00     0.084 N 
HETATM    3  C   LIG     1      16.450  36.991  22.898  1.00  0.00     0.271 C 
HETATM    4  C   LIG     1      15.090  37.050  22.184  1.00  0.00     0.030 C 
HETATM    5  C   LIG     1      14.817  35.748  21.430  1.00  0.00     0.003 C 
HETATM    6  C   LIG     1      15.967  35.425  20.477  1.00  0.00     0.030 C 
HETATM    7  C   LIG     1      17.308  35.404  21.229  1.00  0.00     0.271 C 
ENDROOT
TORSDOF 0
ENDMDL
MODEL 16
REMARK VINA RESULT:      -3.1     13.481     14.361
REMARK  0 active torsions:
REMARK  status: ('A' for Active; 'I' for Inactive)
ROOT
HETATM    1  C   LIG     1      20.950  32.357  10.548  1.00  0.00     0.309 C 
HETATM    2  N   LIG     1      20.999  33.682  11.188  1.00  0.00     0.084 N 
HETATM    3  C   LIG     1      20.617  34.774  10.267  1.00  0.00     0.271 C 
HETATM    4  C   LIG     1      19.103  34.830  10.005  1.00  0.00     0.030 C 
HETATM    5  C   LIG     1      18.328  34.908  11.320  1.00  0.00     0.003 C 
HETATM    6  C   LIG     1      18.722  33.759  12.247  1.00  0.00     0.030 C 
HETATM    7  C   LIG     1      20.245  33.727  12.459  1.00  0.00     0.271 C 
ENDROOT
TORSDOF 0
ENDMDL
MODEL 17
REMARK VINA RESULT:      -3.0     13.469     14.318
REMARK  0 active torsions:
REMARK  status: ('A' for Active; 'I' for Inactive)
ROOT
HETATM    1  C   LIG     1      21.482  35.552  10.189  1.00  0.00     0.309 C 
HETATM    2  N   LIG     1      20.864  34.215  10.202  1.00  0.00     0.084 N 
HETATM    3  C   LIG     1      21.246  33.422  11.391  1.00  0.00     0.271 C 
HETATM    4  C   LIG     1      20.535  33.890  12.671  1.00  0.00     0.030 C 
HETATM    5  C   LIG     1      19.020  33.909  12.473  1.00  0.00     0.003 C 
HETATM    6  C   LIG     1      18.646  34.750  11.254  1.00  0.00     0.030 C 
HETATM    7  C   LIG     1      19.399  34.264  10.005  1.00  0.00     0.271 C 
ENDROOT
TORSDOF 0
ENDMDL
MODEL 18
REMARK VINA RESULT:      -2.9     13.477     14.421
REMARK  0 active torsions:
REMARK  status: ('A' for Active; 'I' for Inactive)
ROOT
HETATM    1  C   LIG     1      19.079  33.704  13.111  1.00  0.00     0.309 C 
HETATM    2  N   LIG     1      18.759  33.530  11.684  1.00  0.00     0.084 N 
HETATM    3  C   LIG     1      18.984  34.761  10.896  1.00  0.00     0.271 C 
HETATM    4  C   LIG     1      20.475  35.044  10.646  1.00  0.00     0.030 C 
HETATM    5  C   LIG     1      21.155  33.834  10.005  1.00  0.00     0.003 C 
HETATM    6  C   LIG     1      20.929  32.579  10.845  1.00  0.00     0.030 C 
HETATM    7  C   LIG     1      19.428  32.351  11.092  1.00  0.00     0.271 C 
ENDROOT
TORSDOF 0
ENDMDL
MODEL 19
REMARK VINA RESULT:      -2.8     15.021     16.263
REMARK  0 active torsions:
REMARK  status: ('A' for Active; 'I' for Inactive)
ROOT
HETATM    1  C   LIG     1      25.858  30.161  37.911  1.00  0.00     0.309 C 
HETATM    2  N   LIG     1      26.125  31.430  37.214  1.00  0.00     0.084 N 
HETATM    3  C   LIG     1      27.496  31.934  37.454  1.00  0.00     0.271 C 
HETATM    4  C   LIG     1      28.563  31.147  36.675  1.00  0.00     0.030 C 
HETATM    5  C   LIG     1      28.230  31.114  35.183  1.00  0.00     0.003 C 
HETATM    6  C   LIG     1      26.820  30.571  34.957  1.00  0.00     0.030 C 
HETATM    7  C   LIG     1      25.791  31.370  35.775  1.00  0.00     0.271 C 
ENDROOT
TORSDOF 0
ENDMDL
