REMARK  4 active torsions:
REMARK  status: ('A' for Active; 'I' for Inactive)
REMARK    1  A    between atoms: C_2  and  C_4 
REMARK    2  A    between atoms: C_2  and  O_3 
REMARK    3  A    between atoms: C_4  and  C_5 
REMARK    4  A    between atoms: C_5  and  C_6 
ROOT
HETATM    1  C   LIG     1      -3.060   0.256  -0.226  1.00  0.00     0.039 C 
HETATM    2  C   LIG     1      -1.749  -0.484   0.054  1.00  0.00     0.114 C 
ENDROOT
BRANCH   2   3
HETATM    3  C   LIG     1      -0.546   0.441  -0.191  1.00  0.00     0.031 C 
BRANCH   3   4
HETATM    4  C   LIG     1       0.777  -0.236   0.193  1.00  0.00     0.002 C 
BRANCH   4   5
HETATM    5  C   LIG     1       1.963   0.708  -0.033  1.00  0.00    -0.004 C 
HETATM    6  C   LIG     1       3.281   0.038   0.346  1.00  0.00     0.005 C 
ENDBRANCH   4   5
ENDBRANCH   3   4
ENDBRANCH   2   3
BRANCH   2   7
HETATM    7  O   LIG     1      -1.657  -1.608  -0.783  1.00  0.00    -0.396 OA
HETATM    8  H   LIG     1      -2.252  -2.303  -0.398  1.00  0.00     0.210 HD
ENDBRANCH   2   7
TORSDOF 4
