MODEL 1
REMARK VINA RESULT:      -4.9      0.000      0.000
REMARK  1 active torsions:
REMARK  status: ('A' for Active; 'I' for Inactive)
REMARK    1  A    between atoms: O_1  and  C_2 
ROOT
HETATM    1  C   LIG     1      19.682  38.747  19.780  1.00  0.00     0.068 A 
HETATM    2  C   LIG     1      18.994  39.382  20.821  1.00  0.00     0.055 A 
HETATM    3  C   LIG     1      18.003  38.682  21.514  1.00  0.00     0.119 A 
HETATM    4  N   LIG     1      17.714  37.397  21.176  1.00  0.00    -0.273 NA
HETATM    5  C   LIG     1      18.370  36.760  20.170  1.00  0.00     0.119 A 
HETATM    6  C   LIG     1      19.368  37.425  19.452  1.00  0.00     0.055 A 
ENDROOT
BRANCH   1   7
HETATM    7  O   LIG     1      20.676  39.417  19.070  1.00  0.00    -0.361 OA
HETATM    8  H   LIG     1      20.825  39.248  18.082  1.00  0.00     0.217 HD
ENDBRANCH   1   7
TORSDOF 1
ENDMDL
MODEL 2
REMARK VINA RESULT:      -4.9      0.060      1.812
REMARK  1 active torsions:
REMARK  status: ('A' for Active; 'I' for Inactive)
REMARK    1  A    between atoms: O_1  and  C_2 
ROOT
HETATM    1  C   LIG     1      19.632  38.750  19.805  1.00  0.00     0.068 A 
HETATM    2  C   LIG     1      19.325  37.430  19.455  1.00  0.00     0.055 A 
HETATM    3  C   LIG     1      18.339  36.744  20.169  1.00  0.00     0.119 A 
HETATM    4  N   LIG     1      17.687  37.358  21.192  1.00  0.00    -0.273 NA
HETATM    5  C   LIG     1      17.968  38.639  21.549  1.00  0.00     0.119 A 
HETATM    6  C   LIG     1      18.948  39.360  20.861  1.00  0.00     0.055 A 
ENDROOT
BRANCH   1   7
HETATM    7  O   LIG     1      20.610  39.462  19.114  1.00  0.00    -0.361 OA
HETATM    8  H   LIG     1      20.832  39.253  18.147  1.00  0.00     0.217 HD
ENDBRANCH   1   7
TORSDOF 1
ENDMDL
MODEL 3
REMARK VINA RESULT:      -4.6      5.176      5.815
REMARK  1 active torsions:
REMARK  status: ('A' for Active; 'I' for Inactive)
REMARK    1  A    between atoms: O_1  and  C_2 
ROOT
HETATM    1  C   LIG     1      17.441  37.517  25.497  1.00  0.00     0.068 A 
HETATM    2  C   LIG     1      17.967  36.634  26.448  1.00  0.00     0.055 A 
HETATM    3  C   LIG     1      18.019  35.268  26.159  1.00  0.00     0.119 A 
HETATM    4  N   LIG     1      17.562  34.806  24.964  1.00  0.00    -0.273 NA
HETATM    5  C   LIG     1      17.047  35.645  24.026  1.00  0.00     0.119 A 
HETATM    6  C   LIG     1      16.977  37.018  24.276  1.00  0.00     0.055 A 
ENDROOT
BRANCH   1   7
HETATM    7  O   LIG     1      17.375  38.884  25.754  1.00  0.00    -0.361 OA
HETATM    8  H   LIG     1      17.612  39.264  26.663  1.00  0.00     0.217 HD
ENDBRANCH   1   7
TORSDOF 1
ENDMDL
MODEL 4
REMARK VINA RESULT:      -4.5      4.651      5.393
REMARK  1 active torsions:
REMARK  status: ('A' for Active; 'I' for Inactive)
REMARK    1  A    between atoms: O_1  and  C_2 
ROOT
HETATM    1  C   LIG     1      17.259  37.482  25.061  1.00  0.00     0.068 A 
HETATM    2  C   LIG     1      16.899  37.391  23.712  1.00  0.00     0.055 A 
HETATM    3  C   LIG     1      16.851  36.135  23.099  1.00  0.00     0.119 A 
HETATM    4  N   LIG     1      17.152  35.017  23.812  1.00  0.00    -0.273 NA
HETATM    5  C   LIG     1      17.504  35.082  25.124  1.00  0.00     0.119 A 
HETATM    6  C   LIG     1      17.564  36.318  25.773  1.00  0.00     0.055 A 
ENDROOT
BRANCH   1   7
HETATM    7  O   LIG     1      17.317  38.718  25.702  1.00  0.00    -0.361 OA
HETATM    8  H   LIG     1      17.844  38.846  26.557  1.00  0.00     0.217 HD
ENDBRANCH   1   7
TORSDOF 1
ENDMDL
MODEL 5
REMARK VINA RESULT:      -4.4      5.229      6.066
REMARK  1 active torsions:
REMARK  status: ('A' for Active; 'I' for Inactive)
REMARK    1  A    between atoms: O_1  and  C_2 
ROOT
HETATM    1  C   LIG     1      17.825  35.770  25.626  1.00  0.00     0.068 A 
HETATM    2  C   LIG     1      17.229  35.629  24.368  1.00  0.00     0.055 A 
HETATM    3  C   LIG     1      16.716  36.758  23.723  1.00  0.00     0.119 A 
HETATM    4  N   LIG     1      16.798  37.978  24.317  1.00  0.00    -0.273 NA
HETATM    5  C   LIG     1      17.373  38.139  25.539  1.00  0.00     0.119 A 
HETATM    6  C   LIG     1      17.898  37.035  26.217  1.00  0.00     0.055 A 
ENDROOT
BRANCH   1   7
HETATM    7  O   LIG     1      18.347  34.665  26.296  1.00  0.00    -0.361 OA
HETATM    8  H   LIG     1      18.043  33.723  26.079  1.00  0.00     0.217 HD
ENDBRANCH   1   7
TORSDOF 1
ENDMDL
MODEL 6
REMARK VINA RESULT:      -4.3      1.563      2.004
REMARK  1 active torsions:
REMARK  status: ('A' for Active; 'I' for Inactive)
REMARK    1  A    between atoms: O_1  and  C_2 
ROOT
HETATM    1  C   LIG     1      18.547  38.798  21.125  1.00  0.00     0.068 A 
HETATM    2  C   LIG     1      17.629  37.925  21.720  1.00  0.00     0.055 A 
HETATM    3  C   LIG     1      17.394  36.677  21.138  1.00  0.00     0.119 A 
HETATM    4  N   LIG     1      18.053  36.320  20.003  1.00  0.00    -0.273 NA
HETATM    5  C   LIG     1      18.949  37.151  19.407  1.00  0.00     0.119 A 
HETATM    6  C   LIG     1      19.213  38.408  19.959  1.00  0.00     0.055 A 
ENDROOT
BRANCH   1   7
HETATM    7  O   LIG     1      18.805  40.050  21.680  1.00  0.00    -0.361 OA
HETATM    8  H   LIG     1      18.954  40.166  22.676  1.00  0.00     0.217 HD
ENDBRANCH   1   7
TORSDOF 1
ENDMDL
MODEL 7
REMARK VINA RESULT:      -4.3      2.257      2.655
REMARK  1 active torsions:
REMARK  status: ('A' for Active; 'I' for Inactive)
REMARK    1  A    between atoms: O_1  and  C_2 
ROOT
HETATM    1  C   LIG     1      18.138  37.103  20.593  1.00  0.00     0.068 A 
HETATM    2  C   LIG     1      17.927  38.219  21.413  1.00  0.00     0.055 A 
HETATM    3  C   LIG     1      18.625  39.401  21.153  1.00  0.00     0.119 A 
HETATM    4  N   LIG     1      19.500  39.461  20.113  1.00  0.00    -0.273 NA
HETATM    5  C   LIG     1      19.720  38.390  19.304  1.00  0.00     0.119 A 
HETATM    6  C   LIG     1      19.042  37.190  19.530  1.00  0.00     0.055 A 
ENDROOT
BRANCH   1   7
HETATM    7  O   LIG     1      17.457  35.910  20.826  1.00  0.00    -0.361 OA
HETATM    8  H   LIG     1      17.671  35.069  20.303  1.00  0.00     0.217 HD
ENDBRANCH   1   7
TORSDOF 1
ENDMDL
MODEL 8
REMARK VINA RESULT:      -4.3      3.061      3.588
REMARK  1 active torsions:
REMARK  status: ('A' for Active; 'I' for Inactive)
REMARK    1  A    between atoms: O_1  and  C_2 
ROOT
HETATM    1  C   LIG     1      18.226  38.774  22.853  1.00  0.00     0.068 A 
HETATM    2  C   LIG     1      18.312  38.393  24.198  1.00  0.00     0.055 A 
HETATM    3  C   LIG     1      17.176  37.897  24.843  1.00  0.00     0.119 A 
HETATM    4  N   LIG     1      16.001  37.789  24.166  1.00  0.00    -0.273 NA
HETATM    5  C   LIG     1      15.894  38.153  22.860  1.00  0.00     0.119 A 
HETATM    6  C   LIG     1      17.007  38.653  22.179  1.00  0.00     0.055 A 
ENDROOT
BRANCH   1   7
HETATM    7  O   LIG     1      19.340  39.272  22.181  1.00  0.00    -0.361 OA
HETATM    8  H   LIG     1      19.811  38.731  21.465  1.00  0.00     0.217 HD
ENDBRANCH   1   7
TORSDOF 1
ENDMDL
MODEL 9
REMARK VINA RESULT:      -4.3      3.048      3.978
REMARK  1 active torsions:
REMARK  status: ('A' for Active; 'I' for Inactive)
REMARK    1  A    between atoms: O_1  and  C_2 
ROOT
HETATM    1  C   LIG     1      16.559  37.803  22.817  1.00  0.00     0.068 A 
HETATM    2  C   LIG     1      16.590  36.557  22.180  1.00  0.00     0.055 A 
HETATM    3  C   LIG     1      17.429  36.374  21.077  1.00  0.00     0.119 A 
HETATM    4  N   LIG     1      18.204  37.399  20.632  1.00  0.00    -0.273 NA
HETATM    5  C   LIG     1      18.190  38.618  21.236  1.00  0.00     0.119 A 
HETATM    6  C   LIG     1      17.365  38.842  22.342  1.00  0.00     0.055 A 
ENDROOT
BRANCH   1   7
HETATM    7  O   LIG     1      15.734  38.019  23.920  1.00  0.00    -0.361 OA
HETATM    8  H   LIG     1      15.425  37.254  24.507  1.00  0.00     0.217 HD
ENDBRANCH   1   7
TORSDOF 1
ENDMDL
MODEL 10
REMARK VINA RESULT:      -4.2      5.110      5.892
REMARK  1 active torsions:
REMARK  status: ('A' for Active; 'I' for Inactive)
REMARK    1  A    between atoms: O_1  and  C_2 
ROOT
HETATM    1  C   LIG     1      17.153  35.684  24.130  1.00  0.00     0.068 A 
HETATM    2  C   LIG     1      17.589  34.947  25.237  1.00  0.00     0.055 A 
HETATM    3  C   LIG     1      17.988  35.621  26.394  1.00  0.00     0.119 A 
HETATM    4  N   LIG     1      17.951  36.980  26.438  1.00  0.00    -0.273 NA
HETATM    5  C   LIG     1      17.531  37.716  25.375  1.00  0.00     0.119 A 
HETATM    6  C   LIG     1      17.123  37.080  24.199  1.00  0.00     0.055 A 
ENDROOT
BRANCH   1   7
HETATM    7  O   LIG     1      16.748  35.043  22.961  1.00  0.00    -0.361 OA
HETATM    8  H   LIG     1      15.778  34.796  22.802  1.00  0.00     0.217 HD
ENDBRANCH   1   7
TORSDOF 1
ENDMDL
MODEL 11
REMARK VINA RESULT:      -4.2      4.234      4.962
REMARK  1 active torsions:
REMARK  status: ('A' for Active; 'I' for Inactive)
REMARK    1  A    between atoms: O_1  and  C_2 
ROOT
HETATM    1  C   LIG     1      17.047  37.831  24.675  1.00  0.00     0.068 A 
HETATM    2  C   LIG     1      17.313  36.545  25.161  1.00  0.00     0.055 A 
HETATM    3  C   LIG     1      17.239  35.455  24.289  1.00  0.00     0.119 A 
HETATM    4  N   LIG     1      16.913  35.648  22.983  1.00  0.00    -0.273 NA
HETATM    5  C   LIG     1      16.652  36.888  22.489  1.00  0.00     0.119 A 
HETATM    6  C   LIG     1      16.715  38.004  23.328  1.00  0.00     0.055 A 
ENDROOT
BRANCH   1   7
HETATM    7  O   LIG     1      17.112  38.938  25.518  1.00  0.00    -0.361 OA
HETATM    8  H   LIG     1      17.840  39.029  26.217  1.00  0.00     0.217 HD
ENDBRANCH   1   7
TORSDOF 1
ENDMDL
MODEL 12
REMARK VINA RESULT:      -4.1      8.755      9.849
REMARK  1 active torsions:
REMARK  status: ('A' for Active; 'I' for Inactive)
REMARK    1  A    between atoms: O_1  and  C_2 
ROOT
HETATM    1  C   LIG     1      13.446  30.940  16.286  1.00  0.00     0.068 A 
HETATM    2  C   LIG     1      14.194  30.536  15.173  1.00  0.00     0.055 A 
HETATM    3  C   LIG     1      15.323  31.273  14.804  1.00  0.00     0.119 A 
HETATM    4  N   LIG     1      15.686  32.368  15.522  1.00  0.00    -0.273 NA
HETATM    5  C   LIG     1      14.976  32.778  16.607  1.00  0.00     0.119 A 
HETATM    6  C   LIG     1      13.840  32.070  17.009  1.00  0.00     0.055 A 
ENDROOT
BRANCH   1   7
HETATM    7  O   LIG     1      12.315  30.228  16.681  1.00  0.00    -0.361 OA
HETATM    8  H   LIG     1      11.398  30.658  16.697  1.00  0.00     0.217 HD
ENDBRANCH   1   7
TORSDOF 1
ENDMDL
MODEL 13
REMARK VINA RESULT:      -4.1      9.503     10.430
REMARK  1 active torsions:
REMARK  status: ('A' for Active; 'I' for Inactive)
REMARK    1  A    between atoms: O_1  and  C_2 
ROOT
HETATM    1  C   LIG     1      13.684  30.636  15.694  1.00  0.00     0.068 A 
HETATM    2  C   LIG     1      14.544  31.682  16.048  1.00  0.00     0.055 A 
HETATM    3  C   LIG     1      15.671  31.939  15.261  1.00  0.00     0.119 A 
HETATM    4  N   LIG     1      15.922  31.177  14.164  1.00  0.00    -0.273 NA
HETATM    5  C   LIG     1      15.101  30.156  13.800  1.00  0.00     0.119 A 
HETATM    6  C   LIG     1      13.964  29.867  14.560  1.00  0.00     0.055 A 
ENDROOT
BRANCH   1   7
HETATM    7  O   LIG     1      12.553  30.354  16.457  1.00  0.00    -0.361 OA
HETATM    8  H   LIG     1      12.250  29.402  16.623  1.00  0.00     0.217 HD
ENDBRANCH   1   7
TORSDOF 1
ENDMDL
MODEL 14
REMARK VINA RESULT:      -4.0      2.129      2.600
REMARK  1 active torsions:
REMARK  status: ('A' for Active; 'I' for Inactive)
REMARK    1  A    between atoms: O_1  and  C_2 
ROOT
HETATM    1  C   LIG     1      17.953  38.644  21.538  1.00  0.00     0.068 A 
HETATM    2  C   LIG     1      18.933  39.376  20.857  1.00  0.00     0.055 A 
HETATM    3  C   LIG     1      19.634  38.772  19.809  1.00  0.00     0.119 A 
HETATM    4  N   LIG     1      19.362  37.487  19.459  1.00  0.00    -0.273 NA
HETATM    5  C   LIG     1      18.414  36.757  20.106  1.00  0.00     0.119 A 
HETATM    6  C   LIG     1      17.691  37.324  21.159  1.00  0.00     0.055 A 
ENDROOT
BRANCH   1   7
HETATM    7  O   LIG     1      17.236  39.216  22.587  1.00  0.00    -0.361 OA
HETATM    8  H   LIG     1      17.617  39.979  23.134  1.00  0.00     0.217 HD
ENDBRANCH   1   7
TORSDOF 1
ENDMDL
MODEL 15
REMARK VINA RESULT:      -4.0      2.030      2.879
REMARK  1 active torsions:
REMARK  status: ('A' for Active; 'I' for Inactive)
REMARK    1  A    between atoms: O_1  and  C_2 
ROOT
HETATM    1  C   LIG     1      18.039  36.870  20.488  1.00  0.00     0.068 A 
HETATM    2  C   LIG     1      17.282  35.948  21.220  1.00  0.00     0.055 A 
HETATM    3  C   LIG     1      16.734  36.332  22.447  1.00  0.00     0.119 A 
HETATM    4  N   LIG     1      16.938  37.590  22.920  1.00  0.00    -0.273 NA
HETATM    5  C   LIG     1      17.670  38.503  22.226  1.00  0.00     0.119 A 
HETATM    6  C   LIG     1      18.234  38.158  20.995  1.00  0.00     0.055 A 
ENDROOT
BRANCH   1   7
HETATM    7  O   LIG     1      18.599  36.518  19.262  1.00  0.00    -0.361 OA
HETATM    8  H   LIG     1      18.807  37.215  18.556  1.00  0.00     0.217 HD
ENDBRANCH   1   7
TORSDOF 1
ENDMDL
MODEL 16
REMARK VINA RESULT:      -3.9      9.811     10.584
REMARK  1 active torsions:
REMARK  status: ('A' for Active; 'I' for Inactive)
REMARK    1  A    between atoms: O_1  and  C_2 
ROOT
HETATM    1  C   LIG     1      13.486  30.009  14.897  1.00  0.00     0.068 A 
HETATM    2  C   LIG     1      13.107  30.655  16.080  1.00  0.00     0.055 A 
HETATM    3  C   LIG     1      13.926  31.659  16.604  1.00  0.00     0.119 A 
HETATM    4  N   LIG     1      15.078  31.999  15.968  1.00  0.00    -0.273 NA
HETATM    5  C   LIG     1      15.467  31.385  14.818  1.00  0.00     0.119 A 
HETATM    6  C   LIG     1      14.676  30.377  14.261  1.00  0.00     0.055 A 
ENDROOT
BRANCH   1   7
HETATM    7  O   LIG     1      12.692  29.004  14.348  1.00  0.00    -0.361 OA
HETATM    8  H   LIG     1      13.057  28.074  14.181  1.00  0.00     0.217 HD
ENDBRANCH   1   7
TORSDOF 1
ENDMDL
MODEL 17
REMARK VINA RESULT:      -3.9      3.756      4.737
REMARK  1 active torsions:
REMARK  status: ('A' for Active; 'I' for Inactive)
REMARK    1  A    between atoms: O_1  and  C_2 
ROOT
HETATM    1  C   LIG     1      15.391  35.801  21.484  1.00  0.00     0.068 A 
HETATM    2  C   LIG     1      16.454  35.475  20.634  1.00  0.00     0.055 A 
HETATM    3  C   LIG     1      17.601  36.273  20.635  1.00  0.00     0.119 A 
HETATM    4  N   LIG     1      17.677  37.355  21.456  1.00  0.00    -0.273 NA
HETATM    5  C   LIG     1      16.657  37.690  22.290  1.00  0.00     0.119 A 
HETATM    6  C   LIG     1      15.493  36.918  22.319  1.00  0.00     0.055 A 
ENDROOT
BRANCH   1   7
HETATM    7  O   LIG     1      14.233  35.025  21.507  1.00  0.00    -0.361 OA
HETATM    8  H   LIG     1      13.723  34.811  20.658  1.00  0.00     0.217 HD
ENDBRANCH   1   7
TORSDOF 1
ENDMDL
MODEL 18
REMARK VINA RESULT:      -3.9      4.527      5.083
REMARK  1 active torsions:
REMARK  status: ('A' for Active; 'I' for Inactive)
REMARK    1  A    between atoms: O_1  and  C_2 
ROOT
HETATM    1  C   LIG     1      17.231  35.710  24.616  1.00  0.00     0.068 A 
HETATM    2  C   LIG     1      17.245  37.071  24.941  1.00  0.00     0.055 A 
HETATM    3  C   LIG     1      17.068  38.019  23.930  1.00  0.00     0.119 A 
HETATM    4  N   LIG     1      16.884  37.617  22.644  1.00  0.00    -0.273 NA
HETATM    5  C   LIG     1      16.866  36.300  22.305  1.00  0.00     0.119 A 
HETATM    6  C   LIG     1      17.039  35.321  23.286  1.00  0.00     0.055 A 
ENDROOT
BRANCH   1   7
HETATM    7  O   LIG     1      17.404  34.739  25.600  1.00  0.00    -0.361 OA
HETATM    8  H   LIG     1      17.733  33.808  25.374  1.00  0.00     0.217 HD
ENDBRANCH   1   7
TORSDOF 1
ENDMDL
MODEL 19
REMARK VINA RESULT:      -3.9      8.632      9.586
REMARK  1 active torsions:
REMARK  status: ('A' for Active; 'I' for Inactive)
REMARK    1  A    between atoms: O_1  and  C_2 
ROOT
HETATM    1  C   LIG     1      15.090  31.246  15.123  1.00  0.00     0.068 A 
HETATM    2  C   LIG     1      13.950  30.435  15.139  1.00  0.00     0.055 A 
HETATM    3  C   LIG     1      12.962  30.661  16.102  1.00  0.00     0.119 A 
HETATM    4  N   LIG     1      13.113  31.662  17.011  1.00  0.00    -0.273 NA
HETATM    5  C   LIG     1      14.213  32.462  17.014  1.00  0.00     0.119 A 
HETATM    6  C   LIG     1      15.223  32.269  16.068  1.00  0.00     0.055 A 
ENDROOT
BRANCH   1   7
HETATM    7  O   LIG     1      16.094  31.047  14.177  1.00  0.00    -0.361 OA
HETATM    8  H   LIG     1      16.151  31.614  13.339  1.00  0.00     0.217 HD
ENDBRANCH   1   7
TORSDOF 1
ENDMDL
MODEL 20
REMARK VINA RESULT:      -3.8      8.984      9.931
REMARK  1 active torsions:
REMARK  status: ('A' for Active; 'I' for Inactive)
REMARK    1  A    between atoms: O_1  and  C_2 
ROOT
HETATM    1  C   LIG     1      14.673  30.595  14.540  1.00  0.00     0.068 A 
HETATM    2  C   LIG     1      15.589  31.597  14.884  1.00  0.00     0.055 A 
HETATM    3  C   LIG     1      15.363  32.369  16.027  1.00  0.00     0.119 A 
HETATM    4  N   LIG     1      14.263  32.144  16.794  1.00  0.00    -0.273 NA
HETATM    5  C   LIG     1      13.360  31.176  16.480  1.00  0.00     0.119 A 
HETATM    6  C   LIG     1      13.550  30.383  15.345  1.00  0.00     0.055 A 
ENDROOT
BRANCH   1   7
HETATM    7  O   LIG     1      14.869  29.808  13.407  1.00  0.00    -0.361 OA
HETATM    8  H   LIG     1      15.778  29.735  12.965  1.00  0.00     0.217 HD
ENDBRANCH   1   7
TORSDOF 1
ENDMDL
