MODEL 1
REMARK VINA RESULT:      -4.9      0.000      0.000
REMARK  4 active torsions:
REMARK  status: ('A' for Active; 'I' for Inactive)
REMARK    1  A    between atoms: C_2  and  C_4 
REMARK    2  A    between atoms: C_2  and  O_3 
REMARK    3  A    between atoms: C_4  and  C_5 
REMARK    4  A    between atoms: C_5  and  C_6 
ROOT
HETATM    1  C   LIG     1      16.722  36.573  22.433  1.00  0.00     0.039 C 
HETATM    2  C   LIG     1      16.611  37.944  23.104  1.00  0.00     0.114 C 
ENDROOT
BRANCH   2   3
HETATM    3  C   LIG     1      17.734  38.131  24.137  1.00  0.00     0.031 C 
BRANCH   3   4
HETATM    4  C   LIG     1      17.348  37.552  25.505  1.00  0.00     0.002 C 
BRANCH   4   5
HETATM    5  C   LIG     1      18.493  36.719  26.091  1.00  0.00    -0.004 C 
HETATM    6  C   LIG     1      18.092  35.253  26.233  1.00  0.00     0.005 C 
ENDBRANCH   4   5
ENDBRANCH   3   4
ENDBRANCH   2   3
BRANCH   2   7
HETATM    7  O   LIG     1      15.363  38.056  23.740  1.00  0.00    -0.396 OA
HETATM    8  H   LIG     1      15.051  37.132  23.924  1.00  0.00     0.210 HD
ENDBRANCH   2   7
TORSDOF 4
ENDMDL
MODEL 2
REMARK VINA RESULT:      -4.7      4.021      4.877
REMARK  4 active torsions:
REMARK  status: ('A' for Active; 'I' for Inactive)
REMARK    1  A    between atoms: C_2  and  C_4 
REMARK    2  A    between atoms: C_2  and  O_3 
REMARK    3  A    between atoms: C_4  and  C_5 
REMARK    4  A    between atoms: C_5  and  C_6 
ROOT
HETATM    1  C   LIG     1      19.462  37.411  19.390  1.00  0.00     0.039 C 
HETATM    2  C   LIG     1      19.989  38.718  19.987  1.00  0.00     0.114 C 
ENDROOT
BRANCH   2   3
HETATM    3  C   LIG     1      18.836  39.537  20.591  1.00  0.00     0.031 C 
BRANCH   3   4
HETATM    4  C   LIG     1      18.580  39.160  22.057  1.00  0.00     0.002 C 
BRANCH   4   5
HETATM    5  C   LIG     1      17.114  38.770  22.276  1.00  0.00    -0.004 C 
HETATM    6  C   LIG     1      16.911  37.269  22.093  1.00  0.00     0.005 C 
ENDBRANCH   4   5
ENDBRANCH   3   4
ENDBRANCH   2   3
BRANCH   2   7
HETATM    7  O   LIG     1      20.625  39.469  18.985  1.00  0.00    -0.396 OA
HETATM    8  H   LIG     1      21.404  38.936  18.678  1.00  0.00     0.210 HD
ENDBRANCH   2   7
TORSDOF 4
ENDMDL
MODEL 3
REMARK VINA RESULT:      -4.6      2.457      4.167
REMARK  4 active torsions:
REMARK  status: ('A' for Active; 'I' for Inactive)
REMARK    1  A    between atoms: C_2  and  C_4 
REMARK    2  A    between atoms: C_2  and  O_3 
REMARK    3  A    between atoms: C_4  and  C_5 
REMARK    4  A    between atoms: C_5  and  C_6 
ROOT
HETATM    1  C   LIG     1      17.289  37.872  24.698  1.00  0.00     0.039 C 
HETATM    2  C   LIG     1      16.499  37.823  23.387  1.00  0.00     0.114 C 
ENDROOT
BRANCH   2   3
HETATM    3  C   LIG     1      17.014  38.890  22.408  1.00  0.00     0.031 C 
BRANCH   3   4
HETATM    4  C   LIG     1      18.057  38.315  21.440  1.00  0.00     0.002 C 
BRANCH   4   5
HETATM    5  C   LIG     1      18.908  39.430  20.822  1.00  0.00    -0.004 C 
HETATM    6  C   LIG     1      19.933  38.864  19.844  1.00  0.00     0.005 C 
ENDBRANCH   4   5
ENDBRANCH   3   4
ENDBRANCH   2   3
BRANCH   2   7
HETATM    7  O   LIG     1      15.138  38.044  23.652  1.00  0.00    -0.396 OA
HETATM    8  H   LIG     1      14.930  37.575  24.502  1.00  0.00     0.210 HD
ENDBRANCH   2   7
TORSDOF 4
ENDMDL
MODEL 4
REMARK VINA RESULT:      -4.5      1.927      3.873
REMARK  4 active torsions:
REMARK  status: ('A' for Active; 'I' for Inactive)
REMARK    1  A    between atoms: C_2  and  C_4 
REMARK    2  A    between atoms: C_2  and  O_3 
REMARK    3  A    between atoms: C_4  and  C_5 
REMARK    4  A    between atoms: C_5  and  C_6 
ROOT
HETATM    1  C   LIG     1      18.397  36.802  25.956  1.00  0.00     0.039 C 
HETATM    2  C   LIG     1      17.209  37.547  25.343  1.00  0.00     0.114 C 
ENDROOT
BRANCH   2   3
HETATM    3  C   LIG     1      17.204  37.388  23.814  1.00  0.00     0.031 C 
BRANCH   3   4
HETATM    4  C   LIG     1      17.749  38.640  23.112  1.00  0.00     0.002 C 
BRANCH   4   5
HETATM    5  C   LIG     1      17.774  38.450  21.592  1.00  0.00    -0.004 C 
HETATM    6  C   LIG     1      18.930  39.219  20.959  1.00  0.00     0.005 C 
ENDBRANCH   4   5
ENDBRANCH   3   4
ENDBRANCH   2   3
BRANCH   2   7
HETATM    7  O   LIG     1      17.288  38.909  25.675  1.00  0.00    -0.396 OA
HETATM    8  H   LIG     1      16.520  39.106  26.272  1.00  0.00     0.210 HD
ENDBRANCH   2   7
TORSDOF 4
ENDMDL
MODEL 5
REMARK VINA RESULT:      -4.4      1.578      3.377
REMARK  4 active torsions:
REMARK  status: ('A' for Active; 'I' for Inactive)
REMARK    1  A    between atoms: C_2  and  C_4 
REMARK    2  A    between atoms: C_2  and  O_3 
REMARK    3  A    between atoms: C_4  and  C_5 
REMARK    4  A    between atoms: C_5  and  C_6 
ROOT
HETATM    1  C   LIG     1      17.216  37.922  24.936  1.00  0.00     0.039 C 
HETATM    2  C   LIG     1      16.486  37.468  23.669  1.00  0.00     0.114 C 
ENDROOT
BRANCH   2   3
HETATM    3  C   LIG     1      17.310  37.818  22.419  1.00  0.00     0.031 C 
BRANCH   3   4
HETATM    4  C   LIG     1      17.283  36.683  21.386  1.00  0.00     0.002 C 
BRANCH   4   5
HETATM    5  C   LIG     1      16.975  35.339  22.055  1.00  0.00    -0.004 C 
HETATM    6  C   LIG     1      15.844  34.610  21.334  1.00  0.00     0.005 C 
ENDBRANCH   4   5
ENDBRANCH   3   4
ENDBRANCH   2   3
BRANCH   2   7
HETATM    7  O   LIG     1      15.233  38.098  23.598  1.00  0.00    -0.396 OA
HETATM    8  H   LIG     1      15.064  38.296  22.640  1.00  0.00     0.210 HD
ENDBRANCH   2   7
TORSDOF 4
ENDMDL
MODEL 6
REMARK VINA RESULT:      -4.3      4.828      5.581
REMARK  4 active torsions:
REMARK  status: ('A' for Active; 'I' for Inactive)
REMARK    1  A    between atoms: C_2  and  C_4 
REMARK    2  A    between atoms: C_2  and  O_3 
REMARK    3  A    between atoms: C_4  and  C_5 
REMARK    4  A    between atoms: C_5  and  C_6 
ROOT
HETATM    1  C   LIG     1      18.965  39.536  20.669  1.00  0.00     0.039 C 
HETATM    2  C   LIG     1      19.472  38.871  19.387  1.00  0.00     0.114 C 
ENDROOT
BRANCH   2   3
HETATM    3  C   LIG     1      19.574  37.348  19.574  1.00  0.00     0.031 C 
BRANCH   3   4
HETATM    4  C   LIG     1      18.205  36.668  19.438  1.00  0.00     0.002 C 
BRANCH   4   5
HETATM    5  C   LIG     1      17.654  36.263  20.810  1.00  0.00    -0.004 C 
HETATM    6  C   LIG     1      16.441  35.348  20.669  1.00  0.00     0.005 C 
ENDBRANCH   4   5
ENDBRANCH   3   4
ENDBRANCH   2   3
BRANCH   2   7
HETATM    7  O   LIG     1      20.735  39.390  19.057  1.00  0.00    -0.396 OA
HETATM    8  H   LIG     1      21.103  38.816  18.335  1.00  0.00     0.210 HD
ENDBRANCH   2   7
TORSDOF 4
ENDMDL
MODEL 7
REMARK VINA RESULT:      -4.1      1.474      1.864
REMARK  4 active torsions:
REMARK  status: ('A' for Active; 'I' for Inactive)
REMARK    1  A    between atoms: C_2  and  C_4 
REMARK    2  A    between atoms: C_2  and  O_3 
REMARK    3  A    between atoms: C_4  and  C_5 
REMARK    4  A    between atoms: C_5  and  C_6 
ROOT
HETATM    1  C   LIG     1      15.827  36.513  22.120  1.00  0.00     0.039 C 
HETATM    2  C   LIG     1      17.186  36.736  22.789  1.00  0.00     0.114 C 
ENDROOT
BRANCH   2   3
HETATM    3  C   LIG     1      17.083  36.511  24.306  1.00  0.00     0.031 C 
BRANCH   3   4
HETATM    4  C   LIG     1      17.328  35.043  24.680  1.00  0.00     0.002 C 
BRANCH   4   5
HETATM    5  C   LIG     1      17.831  34.920  26.123  1.00  0.00    -0.004 C 
HETATM    6  C   LIG     1      18.358  36.257  26.639  1.00  0.00     0.005 C 
ENDBRANCH   4   5
ENDBRANCH   3   4
ENDBRANCH   2   3
BRANCH   2   7
HETATM    7  O   LIG     1      17.624  38.046  22.536  1.00  0.00    -0.396 OA
HETATM    8  H   LIG     1      18.614  38.010  22.468  1.00  0.00     0.210 HD
ENDBRANCH   2   7
TORSDOF 4
ENDMDL
MODEL 8
REMARK VINA RESULT:      -4.1      3.324      4.332
REMARK  4 active torsions:
REMARK  status: ('A' for Active; 'I' for Inactive)
REMARK    1  A    between atoms: C_2  and  C_4 
REMARK    2  A    between atoms: C_2  and  O_3 
REMARK    3  A    between atoms: C_4  and  C_5 
REMARK    4  A    between atoms: C_5  and  C_6 
ROOT
HETATM    1  C   LIG     1      15.585  33.681  20.432  1.00  0.00     0.039 C 
HETATM    2  C   LIG     1      15.596  35.195  20.662  1.00  0.00     0.114 C 
ENDROOT
BRANCH   2   3
HETATM    3  C   LIG     1      16.724  35.584  21.631  1.00  0.00     0.031 C 
BRANCH   3   4
HETATM    4  C   LIG     1      17.553  36.758  21.094  1.00  0.00     0.002 C 
BRANCH   4   5
HETATM    5  C   LIG     1      17.388  37.998  21.980  1.00  0.00    -0.004 C 
HETATM    6  C   LIG     1      18.413  39.071  21.623  1.00  0.00     0.005 C 
ENDBRANCH   4   5
ENDBRANCH   3   4
ENDBRANCH   2   3
BRANCH   2   7
HETATM    7  O   LIG     1      14.359  35.597  21.193  1.00  0.00    -0.396 OA
HETATM    8  H   LIG     1      13.702  35.561  20.450  1.00  0.00     0.210 HD
ENDBRANCH   2   7
TORSDOF 4
ENDMDL
MODEL 9
REMARK VINA RESULT:      -4.1      1.813      2.206
REMARK  4 active torsions:
REMARK  status: ('A' for Active; 'I' for Inactive)
REMARK    1  A    between atoms: C_2  and  C_4 
REMARK    2  A    between atoms: C_2  and  O_3 
REMARK    3  A    between atoms: C_4  and  C_5 
REMARK    4  A    between atoms: C_5  and  C_6 
ROOT
HETATM    1  C   LIG     1      18.658  39.100  22.019  1.00  0.00     0.039 C 
HETATM    2  C   LIG     1      17.444  38.176  21.889  1.00  0.00     0.114 C 
ENDROOT
BRANCH   2   3
HETATM    3  C   LIG     1      17.021  37.647  23.269  1.00  0.00     0.031 C 
BRANCH   3   4
HETATM    4  C   LIG     1      17.980  38.112  24.373  1.00  0.00     0.002 C 
BRANCH   4   5
HETATM    5  C   LIG     1      17.480  37.677  25.755  1.00  0.00    -0.004 C 
HETATM    6  C   LIG     1      18.415  36.647  26.381  1.00  0.00     0.005 C 
ENDBRANCH   4   5
ENDBRANCH   3   4
ENDBRANCH   2   3
BRANCH   2   7
HETATM    7  O   LIG     1      17.764  37.097  21.049  1.00  0.00    -0.396 OA
HETATM    8  H   LIG     1      17.544  37.378  20.123  1.00  0.00     0.210 HD
ENDBRANCH   2   7
TORSDOF 4
ENDMDL
MODEL 10
REMARK VINA RESULT:      -4.0      2.516      3.890
REMARK  4 active torsions:
REMARK  status: ('A' for Active; 'I' for Inactive)
REMARK    1  A    between atoms: C_2  and  C_4 
REMARK    2  A    between atoms: C_2  and  O_3 
REMARK    3  A    between atoms: C_4  and  C_5 
REMARK    4  A    between atoms: C_5  and  C_6 
ROOT
HETATM    1  C   LIG     1      15.562  33.600  20.391  1.00  0.00     0.039 C 
HETATM    2  C   LIG     1      15.548  35.130  20.427  1.00  0.00     0.114 C 
ENDROOT
BRANCH   2   3
HETATM    3  C   LIG     1      16.830  35.665  21.085  1.00  0.00     0.031 C 
BRANCH   3   4
HETATM    4  C   LIG     1      16.858  35.372  22.591  1.00  0.00     0.002 C 
BRANCH   4   5
HETATM    5  C   LIG     1      17.011  36.665  23.400  1.00  0.00    -0.004 C 
HETATM    6  C   LIG     1      16.782  37.893  22.524  1.00  0.00     0.005 C 
ENDBRANCH   4   5
ENDBRANCH   3   4
ENDBRANCH   2   3
BRANCH   2   7
HETATM    7  O   LIG     1      14.428  35.573  21.149  1.00  0.00    -0.396 OA
HETATM    8  H   LIG     1      14.653  36.471  21.507  1.00  0.00     0.210 HD
ENDBRANCH   2   7
TORSDOF 4
ENDMDL
MODEL 11
REMARK VINA RESULT:      -3.9      9.360     11.428
REMARK  4 active torsions:
REMARK  status: ('A' for Active; 'I' for Inactive)
REMARK    1  A    between atoms: C_2  and  C_4 
REMARK    2  A    between atoms: C_2  and  O_3 
REMARK    3  A    between atoms: C_4  and  C_5 
REMARK    4  A    between atoms: C_5  and  C_6 
ROOT
HETATM    1  C   LIG     1      14.911  33.012  17.491  1.00  0.00     0.039 C 
HETATM    2  C   LIG     1      14.039  31.778  17.242  1.00  0.00     0.114 C 
ENDROOT
BRANCH   2   3
HETATM    3  C   LIG     1      14.348  31.170  15.864  1.00  0.00     0.031 C 
BRANCH   3   4
HETATM    4  C   LIG     1      13.207  30.269  15.373  1.00  0.00     0.002 C 
BRANCH   4   5
HETATM    5  C   LIG     1      13.674  29.368  14.225  1.00  0.00    -0.004 C 
HETATM    6  C   LIG     1      15.163  29.553  13.949  1.00  0.00     0.005 C 
ENDBRANCH   4   5
ENDBRANCH   3   4
ENDBRANCH   2   3
BRANCH   2   7
HETATM    7  O   LIG     1      12.684  32.140  17.304  1.00  0.00    -0.396 OA
HETATM    8  H   LIG     1      12.529  32.799  16.578  1.00  0.00     0.210 HD
ENDBRANCH   2   7
TORSDOF 4
ENDMDL
MODEL 12
REMARK VINA RESULT:      -3.9      2.469      4.104
REMARK  4 active torsions:
REMARK  status: ('A' for Active; 'I' for Inactive)
REMARK    1  A    between atoms: C_2  and  C_4 
REMARK    2  A    between atoms: C_2  and  O_3 
REMARK    3  A    between atoms: C_4  and  C_5 
REMARK    4  A    between atoms: C_5  and  C_6 
ROOT
HETATM    1  C   LIG     1      16.945  39.076  22.910  1.00  0.00     0.039 C 
HETATM    2  C   LIG     1      16.235  37.770  23.275  1.00  0.00     0.114 C 
ENDROOT
BRANCH   2   3
HETATM    3  C   LIG     1      16.450  36.715  22.178  1.00  0.00     0.031 C 
BRANCH   3   4
HETATM    4  C   LIG     1      17.866  36.789  21.590  1.00  0.00     0.002 C 
BRANCH   4   5
HETATM    5  C   LIG     1      17.854  36.489  20.087  1.00  0.00    -0.004 C 
HETATM    6  C   LIG     1      19.127  36.994  19.414  1.00  0.00     0.005 C 
ENDBRANCH   4   5
ENDBRANCH   3   4
ENDBRANCH   2   3
BRANCH   2   7
HETATM    7  O   LIG     1      14.860  38.012  23.433  1.00  0.00    -0.396 OA
HETATM    8  H   LIG     1      14.719  38.257  24.384  1.00  0.00     0.210 HD
ENDBRANCH   2   7
TORSDOF 4
ENDMDL
MODEL 13
REMARK VINA RESULT:      -3.9      3.231      3.991
REMARK  4 active torsions:
REMARK  status: ('A' for Active; 'I' for Inactive)
REMARK    1  A    between atoms: C_2  and  C_4 
REMARK    2  A    between atoms: C_2  and  O_3 
REMARK    3  A    between atoms: C_4  and  C_5 
REMARK    4  A    between atoms: C_5  and  C_6 
ROOT
HETATM    1  C   LIG     1      18.473  38.967  22.443  1.00  0.00     0.039 C 
HETATM    2  C   LIG     1      18.516  38.701  20.936  1.00  0.00     0.114 C 
ENDROOT
BRANCH   2   3
HETATM    3  C   LIG     1      18.259  37.214  20.644  1.00  0.00     0.031 C 
BRANCH   3   4
HETATM    4  C   LIG     1      17.002  36.705  21.364  1.00  0.00     0.002 C 
BRANCH   4   5
HETATM    5  C   LIG     1      17.196  35.266  21.856  1.00  0.00    -0.004 C 
HETATM    6  C   LIG     1      17.033  35.174  23.370  1.00  0.00     0.005 C 
ENDBRANCH   4   5
ENDBRANCH   3   4
ENDBRANCH   2   3
BRANCH   2   7
HETATM    7  O   LIG     1      19.774  39.069  20.431  1.00  0.00    -0.396 OA
HETATM    8  H   LIG     1      19.611  39.561  19.584  1.00  0.00     0.210 HD
ENDBRANCH   2   7
TORSDOF 4
ENDMDL
MODEL 14
REMARK VINA RESULT:      -3.8      8.449     10.584
REMARK  4 active torsions:
REMARK  status: ('A' for Active; 'I' for Inactive)
REMARK    1  A    between atoms: C_2  and  C_4 
REMARK    2  A    between atoms: C_2  and  O_3 
REMARK    3  A    between atoms: C_4  and  C_5 
REMARK    4  A    between atoms: C_5  and  C_6 
ROOT
HETATM    1  C   LIG     1      15.157  32.566  18.459  1.00  0.00     0.039 C 
HETATM    2  C   LIG     1      14.859  33.184  17.090  1.00  0.00     0.114 C 
ENDROOT
BRANCH   2   3
HETATM    3  C   LIG     1      15.155  32.175  15.968  1.00  0.00     0.031 C 
BRANCH   3   4
HETATM    4  C   LIG     1      14.104  31.058  15.918  1.00  0.00     0.002 C 
BRANCH   4   5
HETATM    5  C   LIG     1      14.318  30.158  14.696  1.00  0.00    -0.004 C 
HETATM    6  C   LIG     1      15.357  30.751  13.749  1.00  0.00     0.005 C 
ENDBRANCH   4   5
ENDBRANCH   3   4
ENDBRANCH   2   3
BRANCH   2   7
HETATM    7  O   LIG     1      15.647  34.332  16.912  1.00  0.00    -0.396 OA
HETATM    8  H   LIG     1      15.921  34.348  15.958  1.00  0.00     0.210 HD
ENDBRANCH   2   7
TORSDOF 4
ENDMDL
MODEL 15
REMARK VINA RESULT:      -3.7      3.512      5.408
REMARK  4 active torsions:
REMARK  status: ('A' for Active; 'I' for Inactive)
REMARK    1  A    between atoms: C_2  and  C_4 
REMARK    2  A    between atoms: C_2  and  O_3 
REMARK    3  A    between atoms: C_4  and  C_5 
REMARK    4  A    between atoms: C_5  and  C_6 
ROOT
HETATM    1  C   LIG     1      16.821  35.342  22.547  1.00  0.00     0.039 C 
HETATM    2  C   LIG     1      17.149  35.582  21.070  1.00  0.00     0.114 C 
ENDROOT
BRANCH   2   3
HETATM    3  C   LIG     1      17.890  36.916  20.893  1.00  0.00     0.031 C 
BRANCH   3   4
HETATM    4  C   LIG     1      18.796  36.902  19.654  1.00  0.00     0.002 C 
BRANCH   4   5
HETATM    5  C   LIG     1      19.470  38.263  19.450  1.00  0.00    -0.004 C 
HETATM    6  C   LIG     1      18.927  38.967  18.210  1.00  0.00     0.005 C 
ENDBRANCH   4   5
ENDBRANCH   3   4
ENDBRANCH   2   3
BRANCH   2   7
HETATM    7  O   LIG     1      15.960  35.601  20.323  1.00  0.00    -0.396 OA
HETATM    8  H   LIG     1      15.283  36.077  20.871  1.00  0.00     0.210 HD
ENDBRANCH   2   7
TORSDOF 4
ENDMDL
MODEL 16
REMARK VINA RESULT:      -3.7     10.306     11.020
REMARK  4 active torsions:
REMARK  status: ('A' for Active; 'I' for Inactive)
REMARK    1  A    between atoms: C_2  and  C_4 
REMARK    2  A    between atoms: C_2  and  O_3 
REMARK    3  A    between atoms: C_4  and  C_5 
REMARK    4  A    between atoms: C_5  and  C_6 
ROOT
HETATM    1  C   LIG     1      16.314  32.375  13.589  1.00  0.00     0.039 C 
HETATM    2  C   LIG     1      16.506  32.576  15.095  1.00  0.00     0.114 C 
ENDROOT
BRANCH   2   3
HETATM    3  C   LIG     1      15.277  32.070  15.867  1.00  0.00     0.031 C 
BRANCH   3   4
HETATM    4  C   LIG     1      14.604  30.891  15.150  1.00  0.00     0.002 C 
BRANCH   4   5
HETATM    5  C   LIG     1      13.232  30.588  15.762  1.00  0.00    -0.004 C 
HETATM    6  C   LIG     1      12.834  31.654  16.780  1.00  0.00     0.005 C 
ENDBRANCH   4   5
ENDBRANCH   3   4
ENDBRANCH   2   3
BRANCH   2   7
HETATM    7  O   LIG     1      16.703  33.940  15.365  1.00  0.00    -0.396 OA
HETATM    8  H   LIG     1      16.946  34.371  14.504  1.00  0.00     0.210 HD
ENDBRANCH   2   7
TORSDOF 4
ENDMDL
MODEL 17
REMARK VINA RESULT:      -3.7     11.062     12.791
REMARK  4 active torsions:
REMARK  status: ('A' for Active; 'I' for Inactive)
REMARK    1  A    between atoms: C_2  and  C_4 
REMARK    2  A    between atoms: C_2  and  O_3 
REMARK    3  A    between atoms: C_4  and  C_5 
REMARK    4  A    between atoms: C_5  and  C_6 
ROOT
HETATM    1  C   LIG     1      16.609  32.230  15.116  1.00  0.00     0.039 C 
HETATM    2  C   LIG     1      16.134  32.224  13.661  1.00  0.00     0.114 C 
ENDROOT
BRANCH   2   3
HETATM    3  C   LIG     1      15.483  30.875  13.313  1.00  0.00     0.031 C 
BRANCH   3   4
HETATM    4  C   LIG     1      14.719  30.290  14.508  1.00  0.00     0.002 C 
BRANCH   4   5
HETATM    5  C   LIG     1      14.167  28.898  14.179  1.00  0.00    -0.004 C 
HETATM    6  C   LIG     1      15.268  27.979  13.655  1.00  0.00     0.005 C 
ENDBRANCH   4   5
ENDBRANCH   3   4
ENDBRANCH   2   3
BRANCH   2   7
HETATM    7  O   LIG     1      17.227  32.453  12.809  1.00  0.00    -0.396 OA
HETATM    8  H   LIG     1      18.035  32.128  13.285  1.00  0.00     0.210 HD
ENDBRANCH   2   7
TORSDOF 4
ENDMDL
MODEL 18
REMARK VINA RESULT:      -3.5      8.372      9.998
REMARK  4 active torsions:
REMARK  status: ('A' for Active; 'I' for Inactive)
REMARK    1  A    between atoms: C_2  and  C_4 
REMARK    2  A    between atoms: C_2  and  O_3 
REMARK    3  A    between atoms: C_4  and  C_5 
REMARK    4  A    between atoms: C_5  and  C_6 
ROOT
HETATM    1  C   LIG     1      15.257  30.417  14.071  1.00  0.00     0.039 C 
HETATM    2  C   LIG     1      15.679  31.528  15.036  1.00  0.00     0.114 C 
ENDROOT
BRANCH   2   3
HETATM    3  C   LIG     1      14.573  31.792  16.070  1.00  0.00     0.031 C 
BRANCH   3   4
HETATM    4  C   LIG     1      15.116  32.521  17.307  1.00  0.00     0.002 C 
BRANCH   4   5
HETATM    5  C   LIG     1      14.611  31.867  18.597  1.00  0.00    -0.004 C 
HETATM    6  C   LIG     1      15.461  32.281  19.795  1.00  0.00     0.005 C 
ENDBRANCH   4   5
ENDBRANCH   3   4
ENDBRANCH   2   3
BRANCH   2   7
HETATM    7  O   LIG     1      15.937  32.704  14.312  1.00  0.00    -0.396 OA
HETATM    8  H   LIG     1      16.869  32.974  14.525  1.00  0.00     0.210 HD
ENDBRANCH   2   7
TORSDOF 4
ENDMDL
MODEL 19
REMARK VINA RESULT:      -3.5     10.143     11.882
REMARK  4 active torsions:
REMARK  status: ('A' for Active; 'I' for Inactive)
REMARK    1  A    between atoms: C_2  and  C_4 
REMARK    2  A    between atoms: C_2  and  O_3 
REMARK    3  A    between atoms: C_4  and  C_5 
REMARK    4  A    between atoms: C_5  and  C_6 
ROOT
HETATM    1  C   LIG     1      15.833  31.589  13.735  1.00  0.00     0.039 C 
HETATM    2  C   LIG     1      14.861  30.407  13.706  1.00  0.00     0.114 C 
ENDROOT
BRANCH   2   3
HETATM    3  C   LIG     1      14.469  29.997  15.135  1.00  0.00     0.031 C 
BRANCH   3   4
HETATM    4  C   LIG     1      13.399  30.930  15.719  1.00  0.00     0.002 C 
BRANCH   4   5
HETATM    5  C   LIG     1      13.825  31.465  17.090  1.00  0.00    -0.004 C 
HETATM    6  C   LIG     1      14.500  32.828  16.965  1.00  0.00     0.005 C 
ENDBRANCH   4   5
ENDBRANCH   3   4
ENDBRANCH   2   3
BRANCH   2   7
HETATM    7  O   LIG     1      15.464  29.320  13.053  1.00  0.00    -0.396 OA
HETATM    8  H   LIG     1      16.411  29.297  13.347  1.00  0.00     0.210 HD
ENDBRANCH   2   7
TORSDOF 4
ENDMDL
MODEL 20
REMARK VINA RESULT:      -3.5     10.792     11.614
REMARK  4 active torsions:
REMARK  status: ('A' for Active; 'I' for Inactive)
REMARK    1  A    between atoms: C_2  and  C_4 
REMARK    2  A    between atoms: C_2  and  O_3 
REMARK    3  A    between atoms: C_4  and  C_5 
REMARK    4  A    between atoms: C_5  and  C_6 
ROOT
HETATM    1  C   LIG     1      18.445  33.717  13.326  1.00  0.00     0.039 C 
HETATM    2  C   LIG     1      17.544  33.201  14.452  1.00  0.00     0.114 C 
ENDROOT
BRANCH   2   3
HETATM    3  C   LIG     1      16.348  32.429  13.872  1.00  0.00     0.031 C 
BRANCH   3   4
HETATM    4  C   LIG     1      15.790  31.410  14.875  1.00  0.00     0.002 C 
BRANCH   4   5
HETATM    5  C   LIG     1      14.913  30.369  14.171  1.00  0.00    -0.004 C 
HETATM    6  C   LIG     1      13.617  30.129  14.940  1.00  0.00     0.005 C 
ENDBRANCH   4   5
ENDBRANCH   3   4
ENDBRANCH   2   3
BRANCH   2   7
HETATM    7  O   LIG     1      17.081  34.284  15.216  1.00  0.00    -0.396 OA
HETATM    8  H   LIG     1      16.715  33.906  16.058  1.00  0.00     0.210 HD
ENDBRANCH   2   7
TORSDOF 4
ENDMDL
