MODEL 1
REMARK VINA RESULT:      -5.8      0.000      0.000
REMARK  0 active torsions:
REMARK  status: ('A' for Active; 'I' for Inactive)
ROOT
HETATM    1  O   LIG     1      17.764  34.595  26.441  1.00  0.00    -0.247 OA
HETATM    2  C   LIG     1      17.476  35.376  25.494  1.00  0.00     0.327 A 
HETATM    3  N   LIG     1      17.285  34.881  24.239  1.00  0.00    -0.313 N 
HETATM    4  C   LIG     1      16.962  35.705  23.203  1.00  0.00     0.015 A 
HETATM    5  C   LIG     1      16.792  35.149  21.820  1.00  0.00     0.068 C 
HETATM    6  C   LIG     1      16.858  37.082  23.424  1.00  0.00     0.099 A 
HETATM    7  N   LIG     1      17.360  36.712  25.726  1.00  0.00    -0.275 N 
HETATM    8  C   LIG     1      17.059  37.571  24.715  1.00  0.00     0.251 A 
HETATM    9  O   LIG     1      16.961  38.805  24.942  1.00  0.00    -0.268 OA
HETATM   10  H   LIG     1      17.386  33.853  24.076  1.00  0.00     0.170 HD
HETATM   11  H   LIG     1      17.509  37.084  26.692  1.00  0.00     0.173 HD
ENDROOT
TORSDOF 0
ENDMDL
MODEL 2
REMARK VINA RESULT:      -5.8      0.916      2.667
REMARK  0 active torsions:
REMARK  status: ('A' for Active; 'I' for Inactive)
ROOT
HETATM    1  O   LIG     1      16.966  38.826  25.108  1.00  0.00    -0.247 OA
HETATM    2  C   LIG     1      17.072  37.597  24.852  1.00  0.00     0.327 A 
HETATM    3  N   LIG     1      16.815  37.139  23.596  1.00  0.00    -0.313 N 
HETATM    4  C   LIG     1      16.933  35.816  23.293  1.00  0.00     0.015 A 
HETATM    5  C   LIG     1      16.609  35.322  21.915  1.00  0.00     0.068 C 
HETATM    6  C   LIG     1      17.295  34.909  24.296  1.00  0.00     0.099 A 
HETATM    7  N   LIG     1      17.442  36.729  25.833  1.00  0.00    -0.275 N 
HETATM    8  C   LIG     1      17.553  35.396  25.577  1.00  0.00     0.251 A 
HETATM    9  O   LIG     1      17.889  34.603  26.496  1.00  0.00    -0.268 OA
HETATM   10  H   LIG     1      16.523  37.818  22.856  1.00  0.00     0.170 HD
HETATM   11  H   LIG     1      17.638  37.087  26.795  1.00  0.00     0.173 HD
ENDROOT
TORSDOF 0
ENDMDL
MODEL 3
REMARK VINA RESULT:      -5.6      1.917      3.419
REMARK  0 active torsions:
REMARK  status: ('A' for Active; 'I' for Inactive)
ROOT
HETATM    1  O   LIG     1      16.811  38.929  24.406  1.00  0.00    -0.247 OA
HETATM    2  C   LIG     1      16.940  37.682  24.279  1.00  0.00     0.327 A 
HETATM    3  N   LIG     1      17.325  36.926  25.345  1.00  0.00    -0.313 N 
HETATM    4  C   LIG     1      17.460  35.575  25.233  1.00  0.00     0.015 A 
HETATM    5  C   LIG     1      17.921  34.761  26.406  1.00  0.00     0.068 C 
HETATM    6  C   LIG     1      17.231  34.959  23.998  1.00  0.00     0.099 A 
HETATM    7  N   LIG     1      16.697  37.093  23.076  1.00  0.00    -0.275 N 
HETATM    8  C   LIG     1      16.839  35.749  22.918  1.00  0.00     0.251 A 
HETATM    9  O   LIG     1      16.618  35.218  21.797  1.00  0.00    -0.268 OA
HETATM   10  H   LIG     1      17.516  37.395  26.260  1.00  0.00     0.170 HD
HETATM   11  H   LIG     1      16.402  37.680  22.263  1.00  0.00     0.173 HD
ENDROOT
TORSDOF 0
ENDMDL
MODEL 4
REMARK VINA RESULT:      -5.6      1.938      2.792
REMARK  0 active torsions:
REMARK  status: ('A' for Active; 'I' for Inactive)
ROOT
HETATM    1  O   LIG     1      16.590  34.983  21.764  1.00  0.00    -0.247 OA
HETATM    2  C   LIG     1      16.820  35.624  22.825  1.00  0.00     0.327 A 
HETATM    3  N   LIG     1      17.239  34.965  23.940  1.00  0.00    -0.313 N 
HETATM    4  C   LIG     1      17.504  35.639  25.095  1.00  0.00     0.015 A 
HETATM    5  C   LIG     1      17.928  34.894  26.326  1.00  0.00     0.068 C 
HETATM    6  C   LIG     1      17.311  37.024  25.145  1.00  0.00     0.099 A 
HETATM    7  N   LIG     1      16.646  36.974  22.854  1.00  0.00    -0.275 N 
HETATM    8  C   LIG     1      16.880  37.681  23.993  1.00  0.00     0.251 A 
HETATM    9  O   LIG     1      16.707  38.929  24.008  1.00  0.00    -0.268 OA
HETATM   10  H   LIG     1      17.360  33.927  23.904  1.00  0.00     0.170 HD
HETATM   11  H   LIG     1      16.323  37.472  21.994  1.00  0.00     0.173 HD
ENDROOT
TORSDOF 0
ENDMDL
MODEL 5
REMARK VINA RESULT:      -5.6      7.177      8.277
REMARK  0 active torsions:
REMARK  status: ('A' for Active; 'I' for Inactive)
ROOT
HETATM    1  O   LIG     1      14.945  31.982  20.241  1.00  0.00    -0.247 OA
HETATM    2  C   LIG     1      14.760  32.211  19.015  1.00  0.00     0.327 A 
HETATM    3  N   LIG     1      13.997  31.360  18.273  1.00  0.00    -0.313 N 
HETATM    4  C   LIG     1      13.775  31.592  16.949  1.00  0.00     0.015 A 
HETATM    5  C   LIG     1      12.964  30.626  16.137  1.00  0.00     0.068 C 
HETATM    6  C   LIG     1      14.365  32.703  16.335  1.00  0.00     0.099 A 
HETATM    7  N   LIG     1      15.325  33.304  18.435  1.00  0.00    -0.275 N 
HETATM    8  C   LIG     1      15.144  33.561  17.110  1.00  0.00     0.251 A 
HETATM    9  O   LIG     1      15.678  34.573  16.584  1.00  0.00    -0.268 OA
HETATM   10  H   LIG     1      13.578  30.519  18.732  1.00  0.00     0.170 HD
HETATM   11  H   LIG     1      15.909  33.952  19.010  1.00  0.00     0.173 HD
ENDROOT
TORSDOF 0
ENDMDL
MODEL 6
REMARK VINA RESULT:      -5.4      3.055      3.626
REMARK  0 active torsions:
REMARK  status: ('A' for Active; 'I' for Inactive)
ROOT
HETATM    1  O   LIG     1      16.852  35.115  20.976  1.00  0.00    -0.247 OA
HETATM    2  C   LIG     1      17.041  36.252  21.488  1.00  0.00     0.327 A 
HETATM    3  N   LIG     1      17.836  37.159  20.855  1.00  0.00    -0.313 N 
HETATM    4  C   LIG     1      18.046  38.397  21.384  1.00  0.00     0.015 A 
HETATM    5  C   LIG     1      18.954  39.371  20.694  1.00  0.00     0.068 C 
HETATM    6  C   LIG     1      17.462  38.729  22.612  1.00  0.00     0.099 A 
HETATM    7  N   LIG     1      16.453  36.569  22.673  1.00  0.00    -0.275 N 
HETATM    8  C   LIG     1      16.653  37.787  23.246  1.00  0.00     0.251 A 
HETATM    9  O   LIG     1      16.109  38.065  24.347  1.00  0.00    -0.268 OA
HETATM   10  H   LIG     1      18.287  36.896  19.949  1.00  0.00     0.170 HD
HETATM   11  H   LIG     1      15.845  35.867  23.153  1.00  0.00     0.173 HD
ENDROOT
TORSDOF 0
ENDMDL
MODEL 7
REMARK VINA RESULT:      -5.3      7.786      9.241
REMARK  0 active torsions:
REMARK  status: ('A' for Active; 'I' for Inactive)
ROOT
HETATM    1  O   LIG     1      15.469  33.197  19.192  1.00  0.00    -0.247 OA
HETATM    2  C   LIG     1      15.116  32.637  18.119  1.00  0.00     0.327 A 
HETATM    3  N   LIG     1      15.877  32.779  16.998  1.00  0.00    -0.313 N 
HETATM    4  C   LIG     1      15.521  32.175  15.829  1.00  0.00     0.015 A 
HETATM    5  C   LIG     1      16.348  32.371  14.594  1.00  0.00     0.068 C 
HETATM    6  C   LIG     1      14.341  31.424  15.772  1.00  0.00     0.099 A 
HETATM    7  N   LIG     1      13.976  31.895  18.083  1.00  0.00    -0.275 N 
HETATM    8  C   LIG     1      13.575  31.292  16.931  1.00  0.00     0.251 A 
HETATM    9  O   LIG     1      12.514  30.615  16.909  1.00  0.00    -0.268 OA
HETATM   10  H   LIG     1      16.745  33.359  17.041  1.00  0.00     0.170 HD
HETATM   11  H   LIG     1      13.398  31.792  18.947  1.00  0.00     0.173 HD
ENDROOT
TORSDOF 0
ENDMDL
MODEL 8
REMARK VINA RESULT:      -5.2      4.387      5.186
REMARK  0 active torsions:
REMARK  status: ('A' for Active; 'I' for Inactive)
ROOT
HETATM    1  O   LIG     1      17.545  35.849  19.714  1.00  0.00    -0.247 OA
HETATM    2  C   LIG     1      17.980  36.914  20.228  1.00  0.00     0.327 A 
HETATM    3  N   LIG     1      17.475  37.352  21.415  1.00  0.00    -0.313 N 
HETATM    4  C   LIG     1      17.938  38.496  21.994  1.00  0.00     0.015 A 
HETATM    5  C   LIG     1      17.346  38.984  23.282  1.00  0.00     0.068 C 
HETATM    6  C   LIG     1      18.923  39.248  21.343  1.00  0.00     0.099 A 
HETATM    7  N   LIG     1      18.950  37.627  19.593  1.00  0.00    -0.275 N 
HETATM    8  C   LIG     1      19.426  38.785  20.128  1.00  0.00     0.251 A 
HETATM    9  O   LIG     1      20.319  39.438  19.527  1.00  0.00    -0.268 OA
HETATM   10  H   LIG     1      16.724  36.797  21.885  1.00  0.00     0.170 HD
HETATM   11  H   LIG     1      19.332  37.285  18.682  1.00  0.00     0.173 HD
ENDROOT
TORSDOF 0
ENDMDL
MODEL 9
REMARK VINA RESULT:      -5.2      2.599      3.609
REMARK  0 active torsions:
REMARK  status: ('A' for Active; 'I' for Inactive)
ROOT
HETATM    1  O   LIG     1      18.730  39.568  21.047  1.00  0.00    -0.247 OA
HETATM    2  C   LIG     1      18.068  38.682  21.652  1.00  0.00     0.327 A 
HETATM    3  N   LIG     1      17.778  37.507  21.027  1.00  0.00    -0.313 N 
HETATM    4  C   LIG     1      17.073  36.530  21.664  1.00  0.00     0.015 A 
HETATM    5  C   LIG     1      16.728  35.257  20.950  1.00  0.00     0.068 C 
HETATM    6  C   LIG     1      16.615  36.750  22.968  1.00  0.00     0.099 A 
HETATM    7  N   LIG     1      17.644  38.901  22.926  1.00  0.00    -0.275 N 
HETATM    8  C   LIG     1      16.921  37.959  23.591  1.00  0.00     0.251 A 
HETATM    9  O   LIG     1      16.528  38.179  24.767  1.00  0.00    -0.268 OA
HETATM   10  H   LIG     1      18.104  37.357  20.045  1.00  0.00     0.170 HD
HETATM   11  H   LIG     1      17.871  39.806  23.398  1.00  0.00     0.173 HD
ENDROOT
TORSDOF 0
ENDMDL
MODEL 10
REMARK VINA RESULT:      -5.0      8.270      9.714
REMARK  0 active torsions:
REMARK  status: ('A' for Active; 'I' for Inactive)
ROOT
HETATM    1  O   LIG     1      15.361  34.662  17.677  1.00  0.00    -0.247 OA
HETATM    2  C   LIG     1      15.277  33.654  16.925  1.00  0.00     0.327 A 
HETATM    3  N   LIG     1      14.210  32.814  17.032  1.00  0.00    -0.313 N 
HETATM    4  C   LIG     1      14.093  31.724  16.223  1.00  0.00     0.015 A 
HETATM    5  C   LIG     1      12.931  30.788  16.379  1.00  0.00     0.068 C 
HETATM    6  C   LIG     1      15.099  31.445  15.291  1.00  0.00     0.099 A 
HETATM    7  N   LIG     1      16.254  33.405  16.011  1.00  0.00    -0.275 N 
HETATM    8  C   LIG     1      16.185  32.316  15.198  1.00  0.00     0.251 A 
HETATM    9  O   LIG     1      17.100  32.093  14.362  1.00  0.00    -0.268 OA
HETATM   10  H   LIG     1      13.472  33.015  17.745  1.00  0.00     0.170 HD
HETATM   11  H   LIG     1      17.070  34.054  15.936  1.00  0.00     0.173 HD
ENDROOT
TORSDOF 0
ENDMDL
MODEL 11
REMARK VINA RESULT:      -4.9      9.384     10.224
REMARK  0 active torsions:
REMARK  status: ('A' for Active; 'I' for Inactive)
ROOT
HETATM    1  O   LIG     1      13.095  31.428  17.476  1.00  0.00    -0.247 OA
HETATM    2  C   LIG     1      13.987  31.591  16.601  1.00  0.00     0.327 A 
HETATM    3  N   LIG     1      14.158  30.658  15.623  1.00  0.00    -0.313 N 
HETATM    4  C   LIG     1      15.110  30.818  14.661  1.00  0.00     0.015 A 
HETATM    5  C   LIG     1      15.311  29.764  13.613  1.00  0.00     0.068 C 
HETATM    6  C   LIG     1      15.943  31.941  14.695  1.00  0.00     0.099 A 
HETATM    7  N   LIG     1      14.779  32.697  16.636  1.00  0.00    -0.275 N 
HETATM    8  C   LIG     1      15.754  32.885  15.705  1.00  0.00     0.251 A 
HETATM    9  O   LIG     1      16.484  33.909  15.753  1.00  0.00    -0.268 OA
HETATM   10  H   LIG     1      13.547  29.809  15.615  1.00  0.00     0.170 HD
HETATM   11  H   LIG     1      14.641  33.408  17.389  1.00  0.00     0.173 HD
ENDROOT
TORSDOF 0
ENDMDL
MODEL 12
REMARK VINA RESULT:      -4.9      5.573      6.909
REMARK  0 active torsions:
REMARK  status: ('A' for Active; 'I' for Inactive)
ROOT
HETATM    1  O   LIG     1      15.897  35.679  20.499  1.00  0.00    -0.247 OA
HETATM    2  C   LIG     1      15.613  34.702  19.755  1.00  0.00     0.327 A 
HETATM    3  N   LIG     1      15.402  33.472  20.302  1.00  0.00    -0.313 N 
HETATM    4  C   LIG     1      15.084  32.403  19.519  1.00  0.00     0.015 A 
HETATM    5  C   LIG     1      14.892  31.047  20.131  1.00  0.00     0.068 C 
HETATM    6  C   LIG     1      15.005  32.564  18.131  1.00  0.00     0.099 A 
HETATM    7  N   LIG     1      15.522  34.876  18.409  1.00  0.00    -0.275 N 
HETATM    8  C   LIG     1      15.226  33.830  17.590  1.00  0.00     0.251 A 
HETATM    9  O   LIG     1      15.152  34.004  16.345  1.00  0.00    -0.268 OA
HETATM   10  H   LIG     1      15.485  33.353  21.337  1.00  0.00     0.170 HD
HETATM   11  H   LIG     1      15.686  35.823  17.998  1.00  0.00     0.173 HD
ENDROOT
TORSDOF 0
ENDMDL
MODEL 13
REMARK VINA RESULT:      -4.9      7.937      8.873
REMARK  0 active torsions:
REMARK  status: ('A' for Active; 'I' for Inactive)
ROOT
HETATM    1  O   LIG     1      12.876  30.881  15.959  1.00  0.00    -0.247 OA
HETATM    2  C   LIG     1      13.630  31.544  16.721  1.00  0.00     0.327 A 
HETATM    3  N   LIG     1      13.826  31.136  18.006  1.00  0.00    -0.313 N 
HETATM    4  C   LIG     1      14.645  31.832  18.845  1.00  0.00     0.015 A 
HETATM    5  C   LIG     1      14.821  31.391  20.268  1.00  0.00     0.068 C 
HETATM    6  C   LIG     1      15.268  32.999  18.389  1.00  0.00     0.099 A 
HETATM    7  N   LIG     1      14.244  32.668  16.260  1.00  0.00    -0.275 N 
HETATM    8  C   LIG     1      15.054  33.402  17.071  1.00  0.00     0.251 A 
HETATM    9  O   LIG     1      15.609  34.443  16.634  1.00  0.00    -0.268 OA
HETATM   10  H   LIG     1      13.340  30.276  18.348  1.00  0.00     0.170 HD
HETATM   11  H   LIG     1      14.088  32.974  15.273  1.00  0.00     0.173 HD
ENDROOT
TORSDOF 0
ENDMDL
MODEL 14
REMARK VINA RESULT:      -4.9      8.395      9.668
REMARK  0 active torsions:
REMARK  status: ('A' for Active; 'I' for Inactive)
ROOT
HETATM    1  O   LIG     1      17.169  32.184  14.228  1.00  0.00    -0.247 OA
HETATM    2  C   LIG     1      16.266  32.350  15.091  1.00  0.00     0.327 A 
HETATM    3  N   LIG     1      15.236  31.462  15.175  1.00  0.00    -0.313 N 
HETATM    4  C   LIG     1      14.253  31.616  16.107  1.00  0.00     0.015 A 
HETATM    5  C   LIG     1      13.106  30.651  16.162  1.00  0.00     0.068 C 
HETATM    6  C   LIG     1      14.286  32.718  16.968  1.00  0.00     0.099 A 
HETATM    7  N   LIG     1      16.319  33.416  15.934  1.00  0.00    -0.275 N 
HETATM    8  C   LIG     1      15.347  33.617  16.866  1.00  0.00     0.251 A 
HETATM    9  O   LIG     1      15.405  34.612  17.635  1.00  0.00    -0.268 OA
HETATM   10  H   LIG     1      15.205  30.653  14.514  1.00  0.00     0.170 HD
HETATM   11  H   LIG     1      17.113  34.093  15.863  1.00  0.00     0.173 HD
ENDROOT
TORSDOF 0
ENDMDL
MODEL 15
REMARK VINA RESULT:      -4.9      3.547      4.278
REMARK  0 active torsions:
REMARK  status: ('A' for Active; 'I' for Inactive)
ROOT
HETATM    1  O   LIG     1      19.539  37.785  19.270  1.00  0.00    -0.247 OA
HETATM    2  C   LIG     1      18.660  37.556  20.144  1.00  0.00     0.327 A 
HETATM    3  N   LIG     1      18.027  36.350  20.171  1.00  0.00    -0.313 N 
HETATM    4  C   LIG     1      17.080  36.077  21.113  1.00  0.00     0.015 A 
HETATM    5  C   LIG     1      16.365  34.758  21.106  1.00  0.00     0.068 C 
HETATM    6  C   LIG     1      16.731  37.060  22.045  1.00  0.00     0.099 A 
HETATM    7  N   LIG     1      18.342  38.515  21.056  1.00  0.00    -0.275 N 
HETATM    8  C   LIG     1      17.389  38.289  22.000  1.00  0.00     0.251 A 
HETATM    9  O   LIG     1      17.100  39.188  22.833  1.00  0.00    -0.268 OA
HETATM   10  H   LIG     1      18.276  35.627  19.458  1.00  0.00     0.170 HD
HETATM   11  H   LIG     1      18.832  39.438  21.027  1.00  0.00     0.173 HD
ENDROOT
TORSDOF 0
ENDMDL
MODEL 16
REMARK VINA RESULT:      -4.8      3.571      4.458
REMARK  0 active torsions:
REMARK  status: ('A' for Active; 'I' for Inactive)
ROOT
HETATM    1  O   LIG     1      15.030  34.797  21.581  1.00  0.00    -0.247 OA
HETATM    2  C   LIG     1      15.938  35.659  21.427  1.00  0.00     0.327 A 
HETATM    3  N   LIG     1      16.043  36.698  22.302  1.00  0.00    -0.313 N 
HETATM    4  C   LIG     1      17.022  37.636  22.161  1.00  0.00     0.015 A 
HETATM    5  C   LIG     1      17.102  38.794  23.111  1.00  0.00     0.068 C 
HETATM    6  C   LIG     1      17.912  37.547  21.085  1.00  0.00     0.099 A 
HETATM    7  N   LIG     1      16.807  35.551  20.386  1.00  0.00    -0.275 N 
HETATM    8  C   LIG     1      17.787  36.477  20.199  1.00  0.00     0.251 A 
HETATM    9  O   LIG     1      18.580  36.370  19.227  1.00  0.00    -0.268 OA
HETATM   10  H   LIG     1      15.361  36.771  23.092  1.00  0.00     0.170 HD
HETATM   11  H   LIG     1      16.719  34.751  19.719  1.00  0.00     0.173 HD
ENDROOT
TORSDOF 0
ENDMDL
MODEL 17
REMARK VINA RESULT:      -4.7      2.861      4.286
REMARK  0 active torsions:
REMARK  status: ('A' for Active; 'I' for Inactive)
ROOT
HETATM    1  O   LIG     1      18.357  39.579  21.419  1.00  0.00    -0.247 OA
HETATM    2  C   LIG     1      17.921  38.597  22.078  1.00  0.00     0.327 A 
HETATM    3  N   LIG     1      17.890  38.652  23.439  1.00  0.00    -0.313 N 
HETATM    4  C   LIG     1      17.414  37.606  24.172  1.00  0.00     0.015 A 
HETATM    5  C   LIG     1      17.422  37.667  25.671  1.00  0.00     0.068 C 
HETATM    6  C   LIG     1      16.980  36.447  23.519  1.00  0.00     0.099 A 
HETATM    7  N   LIG     1      17.486  37.483  21.430  1.00  0.00    -0.275 N 
HETATM    8  C   LIG     1      17.021  36.409  22.125  1.00  0.00     0.251 A 
HETATM    9  O   LIG     1      16.628  35.381  21.512  1.00  0.00    -0.268 OA
HETATM   10  H   LIG     1      18.237  39.512  23.923  1.00  0.00     0.170 HD
HETATM   11  H   LIG     1      17.513  37.448  20.385  1.00  0.00     0.173 HD
ENDROOT
TORSDOF 0
ENDMDL
MODEL 18
REMARK VINA RESULT:      -4.7     10.456     11.639
REMARK  0 active torsions:
REMARK  status: ('A' for Active; 'I' for Inactive)
ROOT
HETATM    1  O   LIG     1      12.689  31.558  17.081  1.00  0.00    -0.247 OA
HETATM    2  C   LIG     1      13.320  31.010  16.137  1.00  0.00     0.327 A 
HETATM    3  N   LIG     1      12.776  29.944  15.486  1.00  0.00    -0.313 N 
HETATM    4  C   LIG     1      13.435  29.342  14.456  1.00  0.00     0.015 A 
HETATM    5  C   LIG     1      12.840  28.145  13.774  1.00  0.00     0.068 C 
HETATM    6  C   LIG     1      14.702  29.805  14.083  1.00  0.00     0.099 A 
HETATM    7  N   LIG     1      14.543  31.482  15.773  1.00  0.00    -0.275 N 
HETATM    8  C   LIG     1      15.242  30.897  14.762  1.00  0.00     0.251 A 
HETATM    9  O   LIG     1      16.377  31.339  14.440  1.00  0.00    -0.268 OA
HETATM   10  H   LIG     1      11.839  29.588  15.784  1.00  0.00     0.170 HD
HETATM   11  H   LIG     1      14.953  32.300  16.278  1.00  0.00     0.173 HD
ENDROOT
TORSDOF 0
ENDMDL
MODEL 19
REMARK VINA RESULT:      -4.6     10.408     11.640
REMARK  0 active torsions:
REMARK  status: ('A' for Active; 'I' for Inactive)
ROOT
HETATM    1  O   LIG     1      12.331  31.546  17.186  1.00  0.00    -0.247 OA
HETATM    2  C   LIG     1      13.067  31.092  16.269  1.00  0.00     0.327 A 
HETATM    3  N   LIG     1      14.255  31.697  15.989  1.00  0.00    -0.313 N 
HETATM    4  C   LIG     1      15.072  31.217  15.010  1.00  0.00     0.015 A 
HETATM    5  C   LIG     1      16.360  31.916  14.688  1.00  0.00     0.068 C 
HETATM    6  C   LIG     1      14.671  30.106  14.259  1.00  0.00     0.099 A 
HETATM    7  N   LIG     1      12.673  30.000  15.559  1.00  0.00    -0.275 N 
HETATM    8  C   LIG     1      13.450  29.501  14.560  1.00  0.00     0.251 A 
HETATM    9  O   LIG     1      13.069  28.495  13.906  1.00  0.00    -0.268 OA
HETATM   10  H   LIG     1      14.540  32.540  16.538  1.00  0.00     0.170 HD
HETATM   11  H   LIG     1      11.759  29.542  15.780  1.00  0.00     0.173 HD
ENDROOT
TORSDOF 0
ENDMDL
MODEL 20
REMARK VINA RESULT:      -4.6      7.952      9.466
REMARK  0 active torsions:
REMARK  status: ('A' for Active; 'I' for Inactive)
ROOT
HETATM    1  O   LIG     1      16.398  33.719  15.559  1.00  0.00    -0.247 OA
HETATM    2  C   LIG     1      15.648  32.981  16.253  1.00  0.00     0.327 A 
HETATM    3  N   LIG     1      15.709  33.038  17.612  1.00  0.00    -0.313 N 
HETATM    4  C   LIG     1      14.902  32.257  18.384  1.00  0.00     0.015 A 
HETATM    5  C   LIG     1      15.007  32.304  19.879  1.00  0.00     0.068 C 
HETATM    6  C   LIG     1      14.019  31.361  17.770  1.00  0.00     0.099 A 
HETATM    7  N   LIG     1      14.783  32.127  15.643  1.00  0.00    -0.275 N 
HETATM    8  C   LIG     1      13.972  31.316  16.377  1.00  0.00     0.251 A 
HETATM    9  O   LIG     1      13.181  30.525  15.799  1.00  0.00    -0.268 OA
HETATM   10  H   LIG     1      16.387  33.694  18.066  1.00  0.00     0.170 HD
HETATM   11  H   LIG     1      14.742  32.089  14.599  1.00  0.00     0.173 HD
ENDROOT
TORSDOF 0
ENDMDL
