REMARK  0 active torsions:
REMARK  status: ('A' for Active; 'I' for Inactive)
ROOT
HETATM    1  O   LIG     1      -2.142   2.114  -0.018  1.00  0.00    -0.247 OA
HETATM    2  C   LIG     1      -1.433   1.072   0.012  1.00  0.00     0.327 A 
HETATM    3  N   LIG     1      -0.076   1.172  -0.048  1.00  0.00    -0.313 N 
HETATM    4  C   LIG     1       0.711   0.060  -0.007  1.00  0.00     0.015 A 
HETATM    5  C   LIG     1       2.202   0.184  -0.112  1.00  0.00     0.068 C 
HETATM    6  C   LIG     1       0.115  -1.204   0.066  1.00  0.00     0.099 A 
HETATM    7  N   LIG     1      -2.025  -0.150   0.101  1.00  0.00    -0.275 N 
HETATM    8  C   LIG     1      -1.276  -1.286   0.125  1.00  0.00     0.251 A 
HETATM    9  O   LIG     1      -1.837  -2.411   0.200  1.00  0.00    -0.268 OA
HETATM   10  H   LIG     1       0.363   2.118  -0.125  1.00  0.00     0.170 HD
HETATM   11  H   LIG     1      -3.067  -0.218   0.146  1.00  0.00     0.173 HD
ENDROOT
TORSDOF 0
