REMARK  0 active torsions:
REMARK  status: ('A' for Active; 'I' for Inactive)
ROOT
HETATM    1  C   LIG     1       1.836   0.823   0.496  1.00  0.00     0.309 C 
HETATM    2  N   LIG     1       1.190  -0.085  -0.466  1.00  0.00     0.084 N 
HETATM    3  C   LIG     1       0.641  -1.299   0.177  1.00  0.00     0.271 C 
HETATM    4  C   LIG     1      -0.652  -1.024   0.962  1.00  0.00     0.030 C 
HETATM    5  C   LIG     1      -1.691  -0.342   0.072  1.00  0.00     0.003 C 
HETATM    6  C   LIG     1      -1.111   0.920  -0.565  1.00  0.00     0.030 C 
HETATM    7  C   LIG     1       0.193   0.602  -1.315  1.00  0.00     0.271 C 
ENDROOT
TORSDOF 0
