MODEL 1
REMARK VINA RESULT:      -4.6      0.000      0.000
REMARK  3 active torsions:
REMARK  status: ('A' for Active; 'I' for Inactive)
REMARK    1  A    between atoms: C_2  and  C_3 
REMARK    2  A    between atoms: C_3  and  O_4 
REMARK    3  A    between atoms: O_4  and  C_5 
ROOT
HETATM    1  O   LIG     1      16.410  37.793  24.604  1.00  0.00    -0.387 OA
ENDROOT
BRANCH   1   2
HETATM    2  C   LIG     1      17.790  37.716  24.903  1.00  0.00     0.167 C 
BRANCH   2   3
HETATM    3  C   LIG     1      17.994  36.929  26.198  1.00  0.00     0.022 C 
HETATM    4  C   LIG     1      17.948  35.421  25.959  1.00  0.00     0.007 C 
ENDBRANCH   2   3
ENDBRANCH   1   2
BRANCH   1   5
HETATM    5  C   LIG     1      16.195  37.763  23.203  1.00  0.00     0.113 C 
HETATM    6  C   LIG     1      16.705  36.435  22.636  1.00  0.00     0.039 C 
HETATM    7  C   LIG     1      16.951  38.931  22.572  1.00  0.00     0.039 C 
ENDBRANCH   1   5
TORSDOF 3
ENDMDL
MODEL 2
REMARK VINA RESULT:      -4.4      1.352      2.159
REMARK  3 active torsions:
REMARK  status: ('A' for Active; 'I' for Inactive)
REMARK    1  A    between atoms: C_2  and  C_3 
REMARK    2  A    between atoms: C_3  and  O_4 
REMARK    3  A    between atoms: O_4  and  C_5 
ROOT
HETATM    1  O   LIG     1      17.237  36.459  24.441  1.00  0.00    -0.387 OA
ENDROOT
BRANCH   1   2
HETATM    2  C   LIG     1      17.300  35.082  24.750  1.00  0.00     0.167 C 
BRANCH   2   3
HETATM    3  C   LIG     1      17.875  34.894  26.154  1.00  0.00     0.022 C 
HETATM    4  C   LIG     1      18.398  36.206  26.735  1.00  0.00     0.007 C 
ENDBRANCH   2   3
ENDBRANCH   1   2
BRANCH   1   5
HETATM    5  C   LIG     1      17.010  36.656  23.056  1.00  0.00     0.113 C 
HETATM    6  C   LIG     1      15.801  37.575  22.861  1.00  0.00     0.039 C 
HETATM    7  C   LIG     1      16.747  35.297  22.410  1.00  0.00     0.039 C 
ENDBRANCH   1   5
TORSDOF 3
ENDMDL
MODEL 3
REMARK VINA RESULT:      -4.2      1.180      3.503
REMARK  3 active torsions:
REMARK  status: ('A' for Active; 'I' for Inactive)
REMARK    1  A    between atoms: C_2  and  C_3 
REMARK    2  A    between atoms: C_3  and  O_4 
REMARK    3  A    between atoms: O_4  and  C_5 
ROOT
HETATM    1  O   LIG     1      16.838  37.392  25.300  1.00  0.00    -0.387 OA
ENDROOT
BRANCH   1   2
HETATM    2  C   LIG     1      16.553  37.695  23.950  1.00  0.00     0.167 C 
BRANCH   2   3
HETATM    3  C   LIG     1      17.754  38.396  23.314  1.00  0.00     0.022 C 
HETATM    4  C   LIG     1      17.501  38.740  21.848  1.00  0.00     0.007 C 
ENDBRANCH   2   3
ENDBRANCH   1   2
BRANCH   1   5
HETATM    5  C   LIG     1      17.875  36.430  25.395  1.00  0.00     0.113 C 
HETATM    6  C   LIG     1      17.314  35.040  25.078  1.00  0.00     0.039 C 
HETATM    7  C   LIG     1      18.435  36.459  26.816  1.00  0.00     0.039 C 
ENDBRANCH   1   5
TORSDOF 3
ENDMDL
MODEL 4
REMARK VINA RESULT:      -4.2      1.407      1.863
REMARK  3 active torsions:
REMARK  status: ('A' for Active; 'I' for Inactive)
REMARK    1  A    between atoms: C_2  and  C_3 
REMARK    2  A    between atoms: C_3  and  O_4 
REMARK    3  A    between atoms: O_4  and  C_5 
ROOT
HETATM    1  O   LIG     1      17.339  37.482  22.873  1.00  0.00    -0.387 OA
ENDROOT
BRANCH   1   2
HETATM    2  C   LIG     1      16.923  37.240  24.202  1.00  0.00     0.167 C 
BRANCH   2   3
HETATM    3  C   LIG     1      17.988  37.746  25.176  1.00  0.00     0.022 C 
HETATM    4  C   LIG     1      18.405  36.666  26.172  1.00  0.00     0.007 C 
ENDBRANCH   2   3
ENDBRANCH   1   2
BRANCH   1   5
HETATM    5  C   LIG     1      16.852  36.476  22.001  1.00  0.00     0.113 C 
HETATM    6  C   LIG     1      16.909  35.117  22.704  1.00  0.00     0.039 C 
HETATM    7  C   LIG     1      17.727  36.457  20.748  1.00  0.00     0.039 C 
ENDBRANCH   1   5
TORSDOF 3
ENDMDL
MODEL 5
REMARK VINA RESULT:      -4.0      3.692      5.212
REMARK  3 active torsions:
REMARK  status: ('A' for Active; 'I' for Inactive)
REMARK    1  A    between atoms: C_2  and  C_3 
REMARK    2  A    between atoms: C_3  and  O_4 
REMARK    3  A    between atoms: O_4  and  C_5 
ROOT
HETATM    1  O   LIG     1      17.137  35.753  19.920  1.00  0.00    -0.387 OA
ENDROOT
BRANCH   1   2
HETATM    2  C   LIG     1      18.033  36.699  20.468  1.00  0.00     0.167 C 
BRANCH   2   3
HETATM    3  C   LIG     1      19.179  36.951  19.488  1.00  0.00     0.022 C 
HETATM    4  C   LIG     1      19.720  38.375  19.600  1.00  0.00     0.007 C 
ENDBRANCH   2   3
ENDBRANCH   1   2
BRANCH   1   5
HETATM    5  C   LIG     1      16.217  35.303  20.899  1.00  0.00     0.113 C 
HETATM    6  C   LIG     1      16.920  35.204  22.256  1.00  0.00     0.039 C 
HETATM    7  C   LIG     1      15.693  33.931  20.477  1.00  0.00     0.039 C 
ENDBRANCH   1   5
TORSDOF 3
ENDMDL
MODEL 6
REMARK VINA RESULT:      -4.0      4.093      5.768
REMARK  3 active torsions:
REMARK  status: ('A' for Active; 'I' for Inactive)
REMARK    1  A    between atoms: C_2  and  C_3 
REMARK    2  A    between atoms: C_3  and  O_4 
REMARK    3  A    between atoms: O_4  and  C_5 
ROOT
HETATM    1  O   LIG     1      16.165  34.938  19.884  1.00  0.00    -0.387 OA
ENDROOT
BRANCH   1   2
HETATM    2  C   LIG     1      15.683  33.756  20.491  1.00  0.00     0.167 C 
BRANCH   2   3
HETATM    3  C   LIG     1      15.422  32.696  19.421  1.00  0.00     0.022 C 
HETATM    4  C   LIG     1      14.825  31.423  20.016  1.00  0.00     0.007 C 
ENDBRANCH   2   3
ENDBRANCH   1   2
BRANCH   1   5
HETATM    5  C   LIG     1      16.663  35.839  20.858  1.00  0.00     0.113 C 
HETATM    6  C   LIG     1      17.972  36.459  20.360  1.00  0.00     0.039 C 
HETATM    7  C   LIG     1      16.907  35.066  22.153  1.00  0.00     0.039 C 
ENDBRANCH   1   5
TORSDOF 3
ENDMDL
MODEL 7
REMARK VINA RESULT:      -3.9      3.273      4.219
REMARK  3 active torsions:
REMARK  status: ('A' for Active; 'I' for Inactive)
REMARK    1  A    between atoms: C_2  and  C_3 
REMARK    2  A    between atoms: C_3  and  O_4 
REMARK    3  A    between atoms: O_4  and  C_5 
ROOT
HETATM    1  O   LIG     1      18.581  37.258  20.316  1.00  0.00    -0.387 OA
ENDROOT
BRANCH   1   2
HETATM    2  C   LIG     1      17.570  37.135  21.296  1.00  0.00     0.167 C 
BRANCH   2   3
HETATM    3  C   LIG     1      17.052  35.696  21.326  1.00  0.00     0.022 C 
HETATM    4  C   LIG     1      16.962  35.154  22.751  1.00  0.00     0.007 C 
ENDBRANCH   2   3
ENDBRANCH   1   2
BRANCH   1   5
HETATM    5  C   LIG     1      18.849  38.620  20.035  1.00  0.00     0.113 C 
HETATM    6  C   LIG     1      20.294  38.768  19.550  1.00  0.00     0.039 C 
HETATM    7  C   LIG     1      18.638  39.429  21.314  1.00  0.00     0.039 C 
ENDBRANCH   1   5
TORSDOF 3
ENDMDL
MODEL 8
REMARK VINA RESULT:      -3.9      2.465      4.308
REMARK  3 active torsions:
REMARK  status: ('A' for Active; 'I' for Inactive)
REMARK    1  A    between atoms: C_2  and  C_3 
REMARK    2  A    between atoms: C_3  and  O_4 
REMARK    3  A    between atoms: O_4  and  C_5 
ROOT
HETATM    1  O   LIG     1      17.623  37.363  21.241  1.00  0.00    -0.387 OA
ENDROOT
BRANCH   1   2
HETATM    2  C   LIG     1      18.053  38.659  21.606  1.00  0.00     0.167 C 
BRANCH   2   3
HETATM    3  C   LIG     1      19.066  39.174  20.584  1.00  0.00     0.022 C 
HETATM    4  C   LIG     1      19.479  38.086  19.595  1.00  0.00     0.007 C 
ENDBRANCH   2   3
ENDBRANCH   1   2
BRANCH   1   5
HETATM    5  C   LIG     1      16.767  36.817  22.230  1.00  0.00     0.113 C 
HETATM    6  C   LIG     1      17.101  37.432  23.592  1.00  0.00     0.039 C 
HETATM    7  C   LIG     1      16.977  35.304  22.270  1.00  0.00     0.039 C 
ENDBRANCH   1   5
TORSDOF 3
ENDMDL
MODEL 9
REMARK VINA RESULT:      -3.7      2.141      3.533
REMARK  3 active torsions:
REMARK  status: ('A' for Active; 'I' for Inactive)
REMARK    1  A    between atoms: C_2  and  C_3 
REMARK    2  A    between atoms: C_3  and  O_4 
REMARK    3  A    between atoms: O_4  and  C_5 
ROOT
HETATM    1  O   LIG     1      16.059  37.345  22.905  1.00  0.00    -0.387 OA
ENDROOT
BRANCH   1   2
HETATM    2  C   LIG     1      16.514  38.621  22.500  1.00  0.00     0.167 C 
BRANCH   2   3
HETATM    3  C   LIG     1      18.043  38.643  22.485  1.00  0.00     0.022 C 
HETATM    4  C   LIG     1      18.589  39.368  21.257  1.00  0.00     0.007 C 
ENDBRANCH   2   3
ENDBRANCH   1   2
BRANCH   1   5
HETATM    5  C   LIG     1      16.820  36.319  22.291  1.00  0.00     0.113 C 
HETATM    6  C   LIG     1      16.076  35.798  21.058  1.00  0.00     0.039 C 
HETATM    7  C   LIG     1      17.018  35.192  23.303  1.00  0.00     0.039 C 
ENDBRANCH   1   5
TORSDOF 3
ENDMDL
MODEL 10
REMARK VINA RESULT:      -3.6      2.831      3.848
REMARK  3 active torsions:
REMARK  status: ('A' for Active; 'I' for Inactive)
REMARK    1  A    between atoms: C_2  and  C_3 
REMARK    2  A    between atoms: C_3  and  O_4 
REMARK    3  A    between atoms: O_4  and  C_5 
ROOT
HETATM    1  O   LIG     1      17.333  37.163  21.331  1.00  0.00    -0.387 OA
ENDROOT
BRANCH   1   2
HETATM    2  C   LIG     1      16.655  36.349  22.266  1.00  0.00     0.167 C 
BRANCH   2   3
HETATM    3  C   LIG     1      16.377  34.977  21.651  1.00  0.00     0.022 C 
HETATM    4  C   LIG     1      15.836  35.091  20.227  1.00  0.00     0.007 C 
ENDBRANCH   2   3
ENDBRANCH   1   2
BRANCH   1   5
HETATM    5  C   LIG     1      17.885  38.305  21.962  1.00  0.00     0.113 C 
HETATM    6  C   LIG     1      16.775  39.079  22.680  1.00  0.00     0.039 C 
HETATM    7  C   LIG     1      18.532  39.184  20.893  1.00  0.00     0.039 C 
ENDBRANCH   1   5
TORSDOF 3
ENDMDL
MODEL 11
REMARK VINA RESULT:      -3.6      2.878      4.258
REMARK  3 active torsions:
REMARK  status: ('A' for Active; 'I' for Inactive)
REMARK    1  A    between atoms: C_2  and  C_3 
REMARK    2  A    between atoms: C_3  and  O_4 
REMARK    3  A    between atoms: O_4  and  C_5 
ROOT
HETATM    1  O   LIG     1      17.518  36.663  21.819  1.00  0.00    -0.387 OA
ENDROOT
BRANCH   1   2
HETATM    2  C   LIG     1      17.550  36.269  20.462  1.00  0.00     0.167 C 
BRANCH   2   3
HETATM    3  C   LIG     1      18.774  36.878  19.777  1.00  0.00     0.022 C 
HETATM    4  C   LIG     1      18.940  38.357  20.120  1.00  0.00     0.007 C 
ENDBRANCH   2   3
ENDBRANCH   1   2
BRANCH   1   5
HETATM    5  C   LIG     1      16.226  36.473  22.370  1.00  0.00     0.113 C 
HETATM    6  C   LIG     1      15.319  35.810  21.330  1.00  0.00     0.039 C 
HETATM    7  C   LIG     1      15.664  37.838  22.766  1.00  0.00     0.039 C 
ENDBRANCH   1   5
TORSDOF 3
ENDMDL
MODEL 12
REMARK VINA RESULT:      -3.6      1.516      3.241
REMARK  3 active torsions:
REMARK  status: ('A' for Active; 'I' for Inactive)
REMARK    1  A    between atoms: C_2  and  C_3 
REMARK    2  A    between atoms: C_3  and  O_4 
REMARK    3  A    between atoms: O_4  and  C_5 
ROOT
HETATM    1  O   LIG     1      15.768  37.850  23.419  1.00  0.00    -0.387 OA
ENDROOT
BRANCH   1   2
HETATM    2  C   LIG     1      15.465  37.077  22.276  1.00  0.00     0.167 C 
BRANCH   2   3
HETATM    3  C   LIG     1      16.316  35.807  22.271  1.00  0.00     0.022 C 
HETATM    4  C   LIG     1      16.668  35.363  20.854  1.00  0.00     0.007 C 
ENDBRANCH   2   3
ENDBRANCH   1   2
BRANCH   1   5
HETATM    5  C   LIG     1      17.161  37.839  23.682  1.00  0.00     0.113 C 
HETATM    6  C   LIG     1      17.404  38.140  25.164  1.00  0.00     0.039 C 
HETATM    7  C   LIG     1      17.827  38.903  22.812  1.00  0.00     0.039 C 
ENDBRANCH   1   5
TORSDOF 3
ENDMDL
MODEL 13
REMARK VINA RESULT:      -3.6     10.020     11.721
REMARK  3 active torsions:
REMARK  status: ('A' for Active; 'I' for Inactive)
REMARK    1  A    between atoms: C_2  and  C_3 
REMARK    2  A    between atoms: C_3  and  O_4 
REMARK    3  A    between atoms: O_4  and  C_5 
ROOT
HETATM    1  O   LIG     1      16.360  31.130  14.508  1.00  0.00    -0.387 OA
ENDROOT
BRANCH   1   2
HETATM    2  C   LIG     1      15.351  30.725  13.604  1.00  0.00     0.167 C 
BRANCH   2   3
HETATM    3  C   LIG     1      14.534  29.588  14.218  1.00  0.00     0.022 C 
HETATM    4  C   LIG     1      13.353  30.111  15.032  1.00  0.00     0.007 C 
ENDBRANCH   2   3
ENDBRANCH   1   2
BRANCH   1   5
HETATM    5  C   LIG     1      16.280  32.521  14.764  1.00  0.00     0.113 C 
HETATM    6  C   LIG     1      17.683  33.132  14.717  1.00  0.00     0.039 C 
HETATM    7  C   LIG     1      15.664  32.723  16.148  1.00  0.00     0.039 C 
ENDBRANCH   1   5
TORSDOF 3
ENDMDL
MODEL 14
REMARK VINA RESULT:      -3.5      4.910      6.251
REMARK  3 active torsions:
REMARK  status: ('A' for Active; 'I' for Inactive)
REMARK    1  A    between atoms: C_2  and  C_3 
REMARK    2  A    between atoms: C_3  and  O_4 
REMARK    3  A    between atoms: O_4  and  C_5 
ROOT
HETATM    1  O   LIG     1      15.726  33.920  19.255  1.00  0.00    -0.387 OA
ENDROOT
BRANCH   1   2
HETATM    2  C   LIG     1      15.741  34.068  20.661  1.00  0.00     0.167 C 
BRANCH   2   3
HETATM    3  C   LIG     1      16.535  35.319  21.039  1.00  0.00     0.022 C 
HETATM    4  C   LIG     1      16.970  35.295  22.502  1.00  0.00     0.007 C 
ENDBRANCH   2   3
ENDBRANCH   1   2
BRANCH   1   5
HETATM    5  C   LIG     1      14.957  32.792  18.874  1.00  0.00     0.113 C 
HETATM    6  C   LIG     1      15.304  31.606  19.779  1.00  0.00     0.039 C 
HETATM    7  C   LIG     1      15.278  32.456  17.419  1.00  0.00     0.039 C 
ENDBRANCH   1   5
TORSDOF 3
ENDMDL
MODEL 15
REMARK VINA RESULT:      -3.5      6.937      8.792
REMARK  3 active torsions:
REMARK  status: ('A' for Active; 'I' for Inactive)
REMARK    1  A    between atoms: C_2  and  C_3 
REMARK    2  A    between atoms: C_3  and  O_4 
REMARK    3  A    between atoms: O_4  and  C_5 
ROOT
HETATM    1  O   LIG     1      15.169  32.964  18.367  1.00  0.00    -0.387 OA
ENDROOT
BRANCH   1   2
HETATM    2  C   LIG     1      14.789  31.841  17.598  1.00  0.00     0.167 C 
BRANCH   2   3
HETATM    3  C   LIG     1      13.434  32.100  16.940  1.00  0.00     0.022 C 
HETATM    4  C   LIG     1      12.916  30.869  16.199  1.00  0.00     0.007 C 
ENDBRANCH   2   3
ENDBRANCH   1   2
BRANCH   1   5
HETATM    5  C   LIG     1      15.606  32.569  19.656  1.00  0.00     0.113 C 
HETATM    6  C   LIG     1      14.826  31.330  20.104  1.00  0.00     0.039 C 
HETATM    7  C   LIG     1      15.361  33.725  20.625  1.00  0.00     0.039 C 
ENDBRANCH   1   5
TORSDOF 3
ENDMDL
MODEL 16
REMARK VINA RESULT:      -3.4      9.025     10.050
REMARK  3 active torsions:
REMARK  status: ('A' for Active; 'I' for Inactive)
REMARK    1  A    between atoms: C_2  and  C_3 
REMARK    2  A    between atoms: C_3  and  O_4 
REMARK    3  A    between atoms: O_4  and  C_5 
ROOT
HETATM    1  O   LIG     1      16.131  32.571  16.504  1.00  0.00    -0.387 OA
ENDROOT
BRANCH   1   2
HETATM    2  C   LIG     1      14.890  33.040  16.991  1.00  0.00     0.167 C 
BRANCH   2   3
HETATM    3  C   LIG     1      14.092  31.875  17.577  1.00  0.00     0.022 C 
HETATM    4  C   LIG     1      12.923  31.477  16.679  1.00  0.00     0.007 C 
ENDBRANCH   2   3
ENDBRANCH   1   2
BRANCH   1   5
HETATM    5  C   LIG     1      16.229  32.763  15.103  1.00  0.00     0.113 C 
HETATM    6  C   LIG     1      15.833  31.473  14.380  1.00  0.00     0.039 C 
HETATM    7  C   LIG     1      17.673  33.134  14.765  1.00  0.00     0.039 C 
ENDBRANCH   1   5
TORSDOF 3
ENDMDL
MODEL 17
REMARK VINA RESULT:      -3.2      7.684      9.095
REMARK  3 active torsions:
REMARK  status: ('A' for Active; 'I' for Inactive)
REMARK    1  A    between atoms: C_2  and  C_3 
REMARK    2  A    between atoms: C_3  and  O_4 
REMARK    3  A    between atoms: O_4  and  C_5 
ROOT
HETATM    1  O   LIG     1      14.775  32.070  17.392  1.00  0.00    -0.387 OA
ENDROOT
BRANCH   1   2
HETATM    2  C   LIG     1      14.456  31.792  18.741  1.00  0.00     0.167 C 
BRANCH   2   3
HETATM    3  C   LIG     1      15.658  32.109  19.631  1.00  0.00     0.022 C 
HETATM    4  C   LIG     1      15.539  33.487  20.278  1.00  0.00     0.007 C 
ENDBRANCH   2   3
ENDBRANCH   1   2
BRANCH   1   5
HETATM    5  C   LIG     1      14.242  31.077  16.532  1.00  0.00     0.113 C 
HETATM    6  C   LIG     1      14.882  31.204  15.147  1.00  0.00     0.039 C 
HETATM    7  C   LIG     1      12.731  31.281  16.435  1.00  0.00     0.039 C 
ENDBRANCH   1   5
TORSDOF 3
ENDMDL
MODEL 18
REMARK VINA RESULT:      -3.2     12.054     12.776
REMARK  3 active torsions:
REMARK  status: ('A' for Active; 'I' for Inactive)
REMARK    1  A    between atoms: C_2  and  C_3 
REMARK    2  A    between atoms: C_3  and  O_4 
REMARK    3  A    between atoms: O_4  and  C_5 
ROOT
HETATM    1  O   LIG     1      19.841  34.463  13.012  1.00  0.00    -0.387 OA
ENDROOT
BRANCH   1   2
HETATM    2  C   LIG     1      21.093  33.960  12.593  1.00  0.00     0.167 C 
BRANCH   2   3
HETATM    3  C   LIG     1      22.044  35.121  12.302  1.00  0.00     0.022 C 
HETATM    4  C   LIG     1      23.030  35.350  13.445  1.00  0.00     0.007 C 
ENDBRANCH   2   3
ENDBRANCH   1   2
BRANCH   1   5
HETATM    5  C   LIG     1      18.797  33.972  12.189  1.00  0.00     0.113 C 
HETATM    6  C   LIG     1      17.664  33.431  13.066  1.00  0.00     0.039 C 
HETATM    7  C   LIG     1      19.359  32.856  11.309  1.00  0.00     0.039 C 
ENDBRANCH   1   5
TORSDOF 3
ENDMDL
MODEL 19
REMARK VINA RESULT:      -3.2     11.301     12.526
REMARK  3 active torsions:
REMARK  status: ('A' for Active; 'I' for Inactive)
REMARK    1  A    between atoms: C_2  and  C_3 
REMARK    2  A    between atoms: C_3  and  O_4 
REMARK    3  A    between atoms: O_4  and  C_5 
ROOT
HETATM    1  O   LIG     1      18.536  32.912  12.318  1.00  0.00    -0.387 OA
ENDROOT
BRANCH   1   2
HETATM    2  C   LIG     1      18.020  33.823  13.267  1.00  0.00     0.167 C 
BRANCH   2   3
HETATM    3  C   LIG     1      17.246  33.064  14.344  1.00  0.00     0.022 C 
HETATM    4  C   LIG     1      16.139  32.199  13.746  1.00  0.00     0.007 C 
ENDBRANCH   2   3
ENDBRANCH   1   2
BRANCH   1   5
HETATM    5  C   LIG     1      19.602  33.492  11.587  1.00  0.00     0.113 C 
HETATM    6  C   LIG     1      20.691  33.961  12.557  1.00  0.00     0.039 C 
HETATM    7  C   LIG     1      19.057  34.679  10.795  1.00  0.00     0.039 C 
ENDBRANCH   1   5
TORSDOF 3
ENDMDL
MODEL 20
REMARK VINA RESULT:      -3.1      2.773      3.739
REMARK  3 active torsions:
REMARK  status: ('A' for Active; 'I' for Inactive)
REMARK    1  A    between atoms: C_2  and  C_3 
REMARK    2  A    between atoms: C_3  and  O_4 
REMARK    3  A    between atoms: O_4  and  C_5 
ROOT
HETATM    1  O   LIG     1      17.368  36.434  20.844  1.00  0.00    -0.387 OA
ENDROOT
BRANCH   1   2
HETATM    2  C   LIG     1      17.950  37.702  21.067  1.00  0.00     0.167 C 
BRANCH   2   3
HETATM    3  C   LIG     1      17.682  38.148  22.505  1.00  0.00     0.022 C 
HETATM    4  C   LIG     1      16.845  39.424  22.557  1.00  0.00     0.007 C 
ENDBRANCH   2   3
ENDBRANCH   1   2
BRANCH   1   5
HETATM    5  C   LIG     1      16.461  36.105  21.883  1.00  0.00     0.113 C 
HETATM    6  C   LIG     1      17.004  34.914  22.678  1.00  0.00     0.039 C 
HETATM    7  C   LIG     1      15.115  35.748  21.254  1.00  0.00     0.039 C 
ENDBRANCH   1   5
TORSDOF 3
ENDMDL
