REMARK  4 active torsions:
REMARK  status: ('A' for Active; 'I' for Inactive)
REMARK    1  A    between atoms: C_2  and  C_4 
REMARK    2  A    between atoms: C_2  and  O_3 
REMARK    3  A    between atoms: C_4  and  C_5 
REMARK    4  A    between atoms: C_5  and  C_6 
ROOT
HETATM    1  C   LIG     1       0.763   0.396  -0.230  1.00  0.00     0.032 C 
ENDROOT
BRANCH   1   2
HETATM    2  C   LIG     1       2.136  -0.225   0.076  1.00  0.00     0.114 C 
HETATM    3  C   LIG     1       3.246   0.549  -0.639  1.00  0.00     0.039 C 
BRANCH   2   4
HETATM    4  O   LIG     1       2.366  -0.202   1.461  1.00  0.00    -0.396 OA
HETATM    5  H   LIG     1       3.084  -0.863   1.644  1.00  0.00     0.210 HD
ENDBRANCH   2   4
ENDBRANCH   1   2
BRANCH   1   6
HETATM    6  C   LIG     1      -0.384  -0.446   0.356  1.00  0.00     0.006 C 
BRANCH   6   7
HETATM    7  C   LIG     1      -1.767   0.224   0.186  1.00  0.00    -0.023 C 
HETATM    8  C   LIG     1      -2.820  -0.528   1.011  1.00  0.00     0.009 C 
HETATM    9  C   LIG     1      -2.202   0.280  -1.286  1.00  0.00     0.009 C 
ENDBRANCH   6   7
ENDBRANCH   1   6
TORSDOF 4
