REMARK  1 active torsions:
REMARK  status: ('A' for Active; 'I' for Inactive)
REMARK    1  A    between atoms: C_3  and  C_4 
ROOT
HETATM    1  C   LIG     1       2.994  -0.097  -0.332  1.00  0.00     0.012 C 
HETATM    2  C   LIG     1       1.819   0.159  -0.425  1.00  0.00    -0.117 C 
HETATM    3  C   LIG     1       0.390   0.471  -0.539  1.00  0.00     0.092 C 
ENDROOT
BRANCH   3   4
HETATM    4  C   LIG     1      -0.421  -0.375   0.445  1.00  0.00     0.007 C 
HETATM    5  C   LIG     1      -1.911  -0.062   0.339  1.00  0.00     0.006 C 
ENDBRANCH   3   4
TORSDOF 1
