MODEL 1
REMARK VINA RESULT:      -4.5      0.000      0.000
REMARK  1 active torsions:
REMARK  status: ('A' for Active; 'I' for Inactive)
REMARK    1  A    between atoms: C_3  and  C_4 
ROOT
HETATM    1  C   LIG     1      17.352  38.234  25.290  1.00  0.00     0.012 C 
HETATM    2  C   LIG     1      17.833  37.309  25.898  1.00  0.00    -0.117 C 
HETATM    3  C   LIG     1      18.419  36.186  26.637  1.00  0.00     0.092 C 
ENDROOT
BRANCH   3   4
HETATM    4  C   LIG     1      17.739  34.874  26.240  1.00  0.00     0.007 C 
HETATM    5  C   LIG     1      17.339  34.886  24.767  1.00  0.00     0.006 C 
ENDBRANCH   3   4
TORSDOF 1
ENDMDL
MODEL 2
REMARK VINA RESULT:      -4.5      0.782      2.618
REMARK  1 active torsions:
REMARK  status: ('A' for Active; 'I' for Inactive)
REMARK    1  A    between atoms: C_3  and  C_4 
ROOT
HETATM    1  C   LIG     1      17.061  35.155  23.231  1.00  0.00     0.012 C 
HETATM    2  C   LIG     1      17.228  35.012  24.417  1.00  0.00    -0.117 C 
HETATM    3  C   LIG     1      17.430  34.836  25.859  1.00  0.00     0.092 C 
ENDROOT
BRANCH   3   4
HETATM    4  C   LIG     1      18.379  35.908  26.400  1.00  0.00     0.007 C 
HETATM    5  C   LIG     1      17.908  37.305  26.005  1.00  0.00     0.006 C 
ENDBRANCH   3   4
TORSDOF 1
ENDMDL
MODEL 3
REMARK VINA RESULT:      -4.3      0.863      1.310
REMARK  1 active torsions:
REMARK  status: ('A' for Active; 'I' for Inactive)
REMARK    1  A    between atoms: C_3  and  C_4 
ROOT
HETATM    1  C   LIG     1      16.695  37.686  24.119  1.00  0.00     0.012 C 
HETATM    2  C   LIG     1      17.574  37.454  24.913  1.00  0.00    -0.117 C 
HETATM    3  C   LIG     1      18.643  37.174  25.877  1.00  0.00     0.092 C 
ENDROOT
BRANCH   3   4
HETATM    4  C   LIG     1      18.228  36.042  26.820  1.00  0.00     0.007 C 
HETATM    5  C   LIG     1      17.840  34.791  26.036  1.00  0.00     0.006 C 
ENDBRANCH   3   4
TORSDOF 1
ENDMDL
MODEL 4
REMARK VINA RESULT:      -4.3      0.823      2.720
REMARK  1 active torsions:
REMARK  status: ('A' for Active; 'I' for Inactive)
REMARK    1  A    between atoms: C_3  and  C_4 
ROOT
HETATM    1  C   LIG     1      17.632  34.680  26.204  1.00  0.00     0.012 C 
HETATM    2  C   LIG     1      18.024  35.810  26.049  1.00  0.00    -0.117 C 
HETATM    3  C   LIG     1      18.502  37.184  25.859  1.00  0.00     0.092 C 
ENDROOT
BRANCH   3   4
HETATM    4  C   LIG     1      17.354  38.091  25.413  1.00  0.00     0.007 C 
HETATM    5  C   LIG     1      16.780  37.632  24.075  1.00  0.00     0.006 C 
ENDBRANCH   3   4
TORSDOF 1
ENDMDL
MODEL 5
REMARK VINA RESULT:      -4.2      1.123      1.865
REMARK  1 active torsions:
REMARK  status: ('A' for Active; 'I' for Inactive)
REMARK    1  A    between atoms: C_3  and  C_4 
ROOT
HETATM    1  C   LIG     1      17.775  38.399  23.228  1.00  0.00     0.012 C 
HETATM    2  C   LIG     1      17.635  38.065  24.378  1.00  0.00    -0.117 C 
HETATM    3  C   LIG     1      17.463  37.660  25.778  1.00  0.00     0.092 C 
ENDROOT
BRANCH   3   4
HETATM    4  C   LIG     1      18.537  36.644  26.175  1.00  0.00     0.007 C 
HETATM    5  C   LIG     1      17.985  35.222  26.140  1.00  0.00     0.006 C 
ENDBRANCH   3   4
TORSDOF 1
ENDMDL
MODEL 6
REMARK VINA RESULT:      -4.0      1.487      2.583
REMARK  1 active torsions:
REMARK  status: ('A' for Active; 'I' for Inactive)
REMARK    1  A    between atoms: C_3  and  C_4 
ROOT
HETATM    1  C   LIG     1      18.390  36.203  26.715  1.00  0.00     0.012 C 
HETATM    2  C   LIG     1      17.846  35.669  25.780  1.00  0.00    -0.117 C 
HETATM    3  C   LIG     1      17.184  35.019  24.643  1.00  0.00     0.092 C 
ENDROOT
BRANCH   3   4
HETATM    4  C   LIG     1      17.183  35.946  23.425  1.00  0.00     0.007 C 
HETATM    5  C   LIG     1      16.817  35.183  22.156  1.00  0.00     0.006 C 
ENDBRANCH   3   4
TORSDOF 1
ENDMDL
MODEL 7
REMARK VINA RESULT:      -4.0      4.994      5.906
REMARK  1 active torsions:
REMARK  status: ('A' for Active; 'I' for Inactive)
REMARK    1  A    between atoms: C_3  and  C_4 
ROOT
HETATM    1  C   LIG     1      17.155  38.621  22.222  1.00  0.00     0.012 C 
HETATM    2  C   LIG     1      18.104  38.872  21.520  1.00  0.00    -0.117 C 
HETATM    3  C   LIG     1      19.258  39.177  20.667  1.00  0.00     0.092 C 
ENDROOT
BRANCH   3   4
HETATM    4  C   LIG     1      19.134  38.455  19.323  1.00  0.00     0.007 C 
HETATM    5  C   LIG     1      19.165  36.941  19.509  1.00  0.00     0.006 C 
ENDBRANCH   3   4
TORSDOF 1
ENDMDL
MODEL 8
REMARK VINA RESULT:      -4.0      4.800      6.036
REMARK  1 active torsions:
REMARK  status: ('A' for Active; 'I' for Inactive)
REMARK    1  A    between atoms: C_3  and  C_4 
ROOT
HETATM    1  C   LIG     1      19.160  36.827  19.468  1.00  0.00     0.012 C 
HETATM    2  C   LIG     1      19.008  37.928  19.937  1.00  0.00    -0.117 C 
HETATM    3  C   LIG     1      18.823  39.267  20.506  1.00  0.00     0.092 C 
ENDROOT
BRANCH   3   4
HETATM    4  C   LIG     1      18.568  39.177  22.012  1.00  0.00     0.007 C 
HETATM    5  C   LIG     1      17.119  38.795  22.302  1.00  0.00     0.006 C 
ENDBRANCH   3   4
TORSDOF 1
ENDMDL
MODEL 9
REMARK VINA RESULT:      -4.0      5.259      6.430
REMARK  1 active torsions:
REMARK  status: ('A' for Active; 'I' for Inactive)
REMARK    1  A    between atoms: C_3  and  C_4 
ROOT
HETATM    1  C   LIG     1      17.162  36.214  21.180  1.00  0.00     0.012 C 
HETATM    2  C   LIG     1      18.060  36.526  20.438  1.00  0.00    -0.117 C 
HETATM    3  C   LIG     1      19.153  36.905  19.536  1.00  0.00     0.092 C 
ENDROOT
BRANCH   3   4
HETATM    4  C   LIG     1      19.104  38.405  19.239  1.00  0.00     0.007 C 
HETATM    5  C   LIG     1      19.229  39.223  20.522  1.00  0.00     0.006 C 
ENDBRANCH   3   4
TORSDOF 1
ENDMDL
MODEL 10
REMARK VINA RESULT:      -3.8      4.038      4.774
REMARK  1 active torsions:
REMARK  status: ('A' for Active; 'I' for Inactive)
REMARK    1  A    between atoms: C_3  and  C_4 
ROOT
HETATM    1  C   LIG     1      18.974  39.425  20.601  1.00  0.00     0.012 C 
HETATM    2  C   LIG     1      18.258  38.623  21.146  1.00  0.00    -0.117 C 
HETATM    3  C   LIG     1      17.387  37.647  21.811  1.00  0.00     0.092 C 
ENDROOT
BRANCH   3   4
HETATM    4  C   LIG     1      17.427  36.307  21.074  1.00  0.00     0.007 C 
HETATM    5  C   LIG     1      16.934  35.174  21.969  1.00  0.00     0.006 C 
ENDBRANCH   3   4
TORSDOF 1
ENDMDL
MODEL 11
REMARK VINA RESULT:      -3.8      3.082      4.335
REMARK  1 active torsions:
REMARK  status: ('A' for Active; 'I' for Inactive)
REMARK    1  A    between atoms: C_3  and  C_4 
ROOT
HETATM    1  C   LIG     1      18.922  39.187  20.910  1.00  0.00     0.012 C 
HETATM    2  C   LIG     1      18.027  39.063  21.709  1.00  0.00    -0.117 C 
HETATM    3  C   LIG     1      16.938  38.912  22.681  1.00  0.00     0.092 C 
ENDROOT
BRANCH   3   4
HETATM    4  C   LIG     1      17.163  37.669  23.545  1.00  0.00     0.007 C 
HETATM    5  C   LIG     1      17.342  38.048  25.013  1.00  0.00     0.006 C 
ENDBRANCH   3   4
TORSDOF 1
ENDMDL
MODEL 12
REMARK VINA RESULT:      -3.8      4.367      5.444
REMARK  1 active torsions:
REMARK  status: ('A' for Active; 'I' for Inactive)
REMARK    1  A    between atoms: C_3  and  C_4 
ROOT
HETATM    1  C   LIG     1      17.310  36.019  21.126  1.00  0.00     0.012 C 
HETATM    2  C   LIG     1      17.308  37.142  21.565  1.00  0.00    -0.117 C 
HETATM    3  C   LIG     1      17.304  38.508  22.100  1.00  0.00     0.092 C 
ENDROOT
BRANCH   3   4
HETATM    4  C   LIG     1      18.675  39.159  21.911  1.00  0.00     0.007 C 
HETATM    5  C   LIG     1      18.979  39.378  20.431  1.00  0.00     0.006 C 
ENDBRANCH   3   4
TORSDOF 1
ENDMDL
MODEL 13
REMARK VINA RESULT:      -3.7      2.754      3.831
REMARK  1 active torsions:
REMARK  status: ('A' for Active; 'I' for Inactive)
REMARK    1  A    between atoms: C_3  and  C_4 
ROOT
HETATM    1  C   LIG     1      17.750  36.384  20.549  1.00  0.00     0.012 C 
HETATM    2  C   LIG     1      17.341  35.807  21.526  1.00  0.00    -0.117 C 
HETATM    3  C   LIG     1      16.842  35.105  22.714  1.00  0.00     0.092 C 
ENDROOT
BRANCH   3   4
HETATM    4  C   LIG     1      17.163  35.903  23.979  1.00  0.00     0.007 C 
HETATM    5  C   LIG     1      17.423  34.974  25.162  1.00  0.00     0.006 C 
ENDBRANCH   3   4
TORSDOF 1
ENDMDL
MODEL 14
REMARK VINA RESULT:      -3.7      4.531      6.218
REMARK  1 active torsions:
REMARK  status: ('A' for Active; 'I' for Inactive)
REMARK    1  A    between atoms: C_3  and  C_4 
ROOT
HETATM    1  C   LIG     1      15.481  32.541  19.764  1.00  0.00     0.012 C 
HETATM    2  C   LIG     1      15.442  33.526  20.459  1.00  0.00    -0.117 C 
HETATM    3  C   LIG     1      15.394  34.725  21.303  1.00  0.00     0.092 C 
ENDROOT
BRANCH   3   4
HETATM    4  C   LIG     1      16.798  35.094  21.787  1.00  0.00     0.007 C 
HETATM    5  C   LIG     1      17.438  36.132  20.870  1.00  0.00     0.006 C 
ENDBRANCH   3   4
TORSDOF 1
ENDMDL
MODEL 15
REMARK VINA RESULT:      -3.6      4.047      5.006
REMARK  1 active torsions:
REMARK  status: ('A' for Active; 'I' for Inactive)
REMARK    1  A    between atoms: C_3  and  C_4 
ROOT
HETATM    1  C   LIG     1      18.810  37.002  19.806  1.00  0.00     0.012 C 
HETATM    2  C   LIG     1      17.964  36.419  20.438  1.00  0.00    -0.117 C 
HETATM    3  C   LIG     1      16.935  35.709  21.206  1.00  0.00     0.092 C 
ENDROOT
BRANCH   3   4
HETATM    4  C   LIG     1      16.853  36.264  22.629  1.00  0.00     0.007 C 
HETATM    5  C   LIG     1      16.099  37.591  22.657  1.00  0.00     0.006 C 
ENDBRANCH   3   4
TORSDOF 1
ENDMDL
MODEL 16
REMARK VINA RESULT:      -3.6     10.488     12.236
REMARK  1 active torsions:
REMARK  status: ('A' for Active; 'I' for Inactive)
REMARK    1  A    between atoms: C_3  and  C_4 
ROOT
HETATM    1  C   LIG     1      15.002  29.913  14.075  1.00  0.00     0.012 C 
HETATM    2  C   LIG     1      14.170  30.252  14.879  1.00  0.00    -0.117 C 
HETATM    3  C   LIG     1      13.156  30.665  15.857  1.00  0.00     0.092 C 
ENDROOT
BRANCH   3   4
HETATM    4  C   LIG     1      13.825  31.253  17.101  1.00  0.00     0.007 C 
HETATM    5  C   LIG     1      14.498  32.586  16.785  1.00  0.00     0.006 C 
ENDBRANCH   3   4
TORSDOF 1
ENDMDL
MODEL 17
REMARK VINA RESULT:      -3.6      3.976      4.391
REMARK  1 active torsions:
REMARK  status: ('A' for Active; 'I' for Inactive)
REMARK    1  A    between atoms: C_3  and  C_4 
ROOT
HETATM    1  C   LIG     1      17.323  38.653  22.331  1.00  0.00     0.012 C 
HETATM    2  C   LIG     1      17.404  37.615  21.721  1.00  0.00    -0.117 C 
HETATM    3  C   LIG     1      17.504  36.353  20.980  1.00  0.00     0.092 C 
ENDROOT
BRANCH   3   4
HETATM    4  C   LIG     1      16.926  35.202  21.805  1.00  0.00     0.007 C 
HETATM    5  C   LIG     1      15.863  34.441  21.017  1.00  0.00     0.006 C 
ENDBRANCH   3   4
TORSDOF 1
ENDMDL
MODEL 18
REMARK VINA RESULT:      -3.6      3.427      4.766
REMARK  1 active torsions:
REMARK  status: ('A' for Active; 'I' for Inactive)
REMARK    1  A    between atoms: C_3  and  C_4 
ROOT
HETATM    1  C   LIG     1      17.206  35.147  24.116  1.00  0.00     0.012 C 
HETATM    2  C   LIG     1      16.972  35.138  22.933  1.00  0.00    -0.117 C 
HETATM    3  C   LIG     1      16.688  35.128  21.494  1.00  0.00     0.092 C 
ENDROOT
BRANCH   3   4
HETATM    4  C   LIG     1      15.358  34.424  21.217  1.00  0.00     0.007 C 
HETATM    5  C   LIG     1      15.532  33.307  20.191  1.00  0.00     0.006 C 
ENDBRANCH   3   4
TORSDOF 1
ENDMDL
MODEL 19
REMARK VINA RESULT:      -3.4      9.034     10.616
REMARK  1 active torsions:
REMARK  status: ('A' for Active; 'I' for Inactive)
REMARK    1  A    between atoms: C_3  and  C_4 
ROOT
HETATM    1  C   LIG     1      15.297  32.111  19.221  1.00  0.00     0.012 C 
HETATM    2  C   LIG     1      14.544  32.054  18.281  1.00  0.00    -0.117 C 
HETATM    3  C   LIG     1      13.627  31.986  17.137  1.00  0.00     0.092 C 
ENDROOT
BRANCH   3   4
HETATM    4  C   LIG     1      14.274  31.222  15.980  1.00  0.00     0.007 C 
HETATM    5  C   LIG     1      13.273  30.279  15.318  1.00  0.00     0.006 C 
ENDBRANCH   3   4
TORSDOF 1
ENDMDL
MODEL 20
REMARK VINA RESULT:      -3.4      3.396      4.888
REMARK  1 active torsions:
REMARK  status: ('A' for Active; 'I' for Inactive)
REMARK    1  A    between atoms: C_3  and  C_4 
ROOT
HETATM    1  C   LIG     1      16.102  34.617  20.746  1.00  0.00     0.012 C 
HETATM    2  C   LIG     1      16.458  35.310  21.667  1.00  0.00    -0.117 C 
HETATM    3  C   LIG     1      16.892  36.152  22.787  1.00  0.00     0.092 C 
ENDROOT
BRANCH   3   4
HETATM    4  C   LIG     1      16.430  37.596  22.579  1.00  0.00     0.007 C 
HETATM    5  C   LIG     1      17.525  38.434  21.925  1.00  0.00     0.006 C 
ENDBRANCH   3   4
TORSDOF 1
ENDMDL
