REMARK  3 active torsions:
REMARK  status: ('A' for Active; 'I' for Inactive)
REMARK    1  A    between atoms: C_2  and  C_3 
REMARK    2  A    between atoms: C_3  and  O_4 
REMARK    3  A    between atoms: O_4  and  C_5 
ROOT
HETATM    1  O   LIG     1       0.130   0.200   0.313  1.00  0.00    -0.387 OA
ENDROOT
BRANCH   1   2
HETATM    2  C   LIG     1      -0.841  -0.805   0.102  1.00  0.00     0.167 C 
BRANCH   2   3
HETATM    3  C   LIG     1      -2.067  -0.529   0.973  1.00  0.00     0.022 C 
HETATM    4  C   LIG     1      -2.765   0.770   0.577  1.00  0.00     0.007 C 
ENDBRANCH   2   3
ENDBRANCH   1   2
BRANCH   1   5
HETATM    5  C   LIG     1       1.321  -0.091  -0.398  1.00  0.00     0.113 C 
HETATM    6  C   LIG     1       2.340  -0.730   0.550  1.00  0.00     0.039 C 
HETATM    7  C   LIG     1       1.877   1.214  -0.966  1.00  0.00     0.039 C 
ENDBRANCH   1   5
TORSDOF 3
