REMARK  3 active torsions:
REMARK  status: ('A' for Active; 'I' for Inactive)
REMARK    1  A    between atoms: C_3  and  C_4 
REMARK    2  A    between atoms: C_4  and  C_5 
REMARK    3  A    between atoms: C_5  and  C_6 
ROOT
HETATM    1  C   LIG     1       4.245   0.253   0.682  1.00  0.00     0.012 C 
HETATM    2  C   LIG     1       3.132   0.570   0.346  1.00  0.00    -0.117 C 
HETATM    3  C   LIG     1       1.777   0.956  -0.064  1.00  0.00     0.093 C 
ENDROOT
BRANCH   3   4
HETATM    4  C   LIG     1       0.772  -0.135   0.316  1.00  0.00     0.012 C 
BRANCH   4   5
HETATM    5  C   LIG     1      -0.649   0.257  -0.106  1.00  0.00     0.000 C 
BRANCH   5   6
HETATM    6  C   LIG     1      -1.656  -0.835   0.274  1.00  0.00    -0.005 C 
HETATM    7  C   LIG     1      -3.071  -0.449  -0.145  1.00  0.00     0.005 C 
ENDBRANCH   5   6
ENDBRANCH   4   5
ENDBRANCH   3   4
TORSDOF 3
