MODEL 1
REMARK VINA RESULT:      -4.4      0.000      0.000
REMARK  3 active torsions:
REMARK  status: ('A' for Active; 'I' for Inactive)
REMARK    1  A    between atoms: C_2  and  C_3 
REMARK    2  A    between atoms: C_3  and  C_4 
REMARK    3  A    between atoms: C_4  and  O_5 
ROOT
HETATM    1  C   LIG     1      17.930  37.392  25.822  1.00  0.00     0.026 C 
ENDROOT
BRANCH   1   2
HETATM    2  C   LIG     1      18.343  36.217  26.720  1.00  0.00    -0.002 C 
HETATM    3  C   LIG     1      17.911  34.862  26.158  1.00  0.00     0.005 C 
ENDBRANCH   1   2
BRANCH   1   4
HETATM    4  C   LIG     1      17.133  36.949  24.592  1.00  0.00     0.167 C 
BRANCH   4   5
HETATM    5  O   LIG     1      16.135  37.912  24.321  1.00  0.00    -0.396 OA
HETATM    6  C   LIG     1      15.773  37.841  22.960  1.00  0.00     0.201 C 
ENDBRANCH   4   5
ENDBRANCH   1   4
TORSDOF 3
ENDMDL
MODEL 2
REMARK VINA RESULT:      -4.0      2.332      4.234
REMARK  3 active torsions:
REMARK  status: ('A' for Active; 'I' for Inactive)
REMARK    1  A    between atoms: C_2  and  C_3 
REMARK    2  A    between atoms: C_3  and  C_4 
REMARK    3  A    between atoms: C_4  and  O_5 
ROOT
HETATM    1  C   LIG     1      17.078  38.879  22.372  1.00  0.00     0.026 C 
ENDROOT
BRANCH   1   2
HETATM    2  C   LIG     1      18.575  39.065  22.083  1.00  0.00    -0.002 C 
HETATM    3  C   LIG     1      18.860  39.372  20.612  1.00  0.00     0.005 C 
ENDBRANCH   1   2
BRANCH   1   4
HETATM    4  C   LIG     1      16.785  37.631  23.208  1.00  0.00     0.167 C 
BRANCH   4   5
HETATM    5  O   LIG     1      16.285  38.029  24.468  1.00  0.00    -0.396 OA
HETATM    6  C   LIG     1      17.305  37.914  25.435  1.00  0.00     0.201 C 
ENDBRANCH   4   5
ENDBRANCH   1   4
TORSDOF 3
ENDMDL
MODEL 3
REMARK VINA RESULT:      -3.8      2.202      4.058
REMARK  3 active torsions:
REMARK  status: ('A' for Active; 'I' for Inactive)
REMARK    1  A    between atoms: C_2  and  C_3 
REMARK    2  A    between atoms: C_3  and  C_4 
REMARK    3  A    between atoms: C_4  and  O_5 
ROOT
HETATM    1  C   LIG     1      17.226  37.470  22.148  1.00  0.00     0.026 C 
ENDROOT
BRANCH   1   2
HETATM    2  C   LIG     1      17.417  36.403  21.059  1.00  0.00    -0.002 C 
HETATM    3  C   LIG     1      18.483  36.789  20.034  1.00  0.00     0.005 C 
ENDBRANCH   1   2
BRANCH   1   4
HETATM    4  C   LIG     1      15.801  37.501  22.707  1.00  0.00     0.167 C 
BRANCH   4   5
HETATM    5  O   LIG     1      15.834  38.021  24.019  1.00  0.00    -0.396 OA
HETATM    6  C   LIG     1      17.008  37.585  24.668  1.00  0.00     0.201 C 
ENDBRANCH   4   5
ENDBRANCH   1   4
TORSDOF 3
ENDMDL
MODEL 4
REMARK VINA RESULT:      -3.5      1.749      1.848
REMARK  3 active torsions:
REMARK  status: ('A' for Active; 'I' for Inactive)
REMARK    1  A    between atoms: C_2  and  C_3 
REMARK    2  A    between atoms: C_3  and  C_4 
REMARK    3  A    between atoms: C_4  and  O_5 
ROOT
HETATM    1  C   LIG     1      17.393  36.510  24.666  1.00  0.00     0.026 C 
ENDROOT
BRANCH   1   2
HETATM    2  C   LIG     1      18.151  36.348  25.992  1.00  0.00    -0.002 C 
HETATM    3  C   LIG     1      18.359  34.883  26.380  1.00  0.00     0.005 C 
ENDBRANCH   1   2
BRANCH   1   4
HETATM    4  C   LIG     1      17.045  35.171  24.012  1.00  0.00     0.167 C 
BRANCH   4   5
HETATM    5  O   LIG     1      17.149  35.303  22.610  1.00  0.00    -0.396 OA
HETATM    6  C   LIG     1      16.409  36.427  22.189  1.00  0.00     0.201 C 
ENDBRANCH   4   5
ENDBRANCH   1   4
TORSDOF 3
ENDMDL
MODEL 5
REMARK VINA RESULT:      -3.5      3.748      5.176
REMARK  3 active torsions:
REMARK  status: ('A' for Active; 'I' for Inactive)
REMARK    1  A    between atoms: C_2  and  C_3 
REMARK    2  A    between atoms: C_3  and  C_4 
REMARK    3  A    between atoms: C_4  and  O_5 
ROOT
HETATM    1  C   LIG     1      18.906  39.388  20.747  1.00  0.00     0.026 C 
ENDROOT
BRANCH   1   2
HETATM    2  C   LIG     1      19.701  38.622  19.679  1.00  0.00    -0.002 C 
HETATM    3  C   LIG     1      19.214  37.183  19.499  1.00  0.00     0.005 C 
ENDBRANCH   1   2
BRANCH   1   4
HETATM    4  C   LIG     1      17.970  38.485  21.554  1.00  0.00     0.167 C 
BRANCH   4   5
HETATM    5  O   LIG     1      18.159  38.739  22.930  1.00  0.00    -0.396 OA
HETATM    6  C   LIG     1      17.139  38.106  23.669  1.00  0.00     0.201 C 
ENDBRANCH   4   5
ENDBRANCH   1   4
TORSDOF 3
ENDMDL
MODEL 6
REMARK VINA RESULT:      -3.5      1.550      3.527
REMARK  3 active torsions:
REMARK  status: ('A' for Active; 'I' for Inactive)
REMARK    1  A    between atoms: C_2  and  C_3 
REMARK    2  A    between atoms: C_3  and  C_4 
REMARK    3  A    between atoms: C_4  and  O_5 
ROOT
HETATM    1  C   LIG     1      17.364  38.249  25.046  1.00  0.00     0.026 C 
ENDROOT
BRANCH   1   2
HETATM    2  C   LIG     1      16.821  37.902  23.652  1.00  0.00    -0.002 C 
HETATM    3  C   LIG     1      17.565  38.628  22.530  1.00  0.00     0.005 C 
ENDBRANCH   1   2
BRANCH   1   4
HETATM    4  C   LIG     1      18.003  37.050  25.751  1.00  0.00     0.167 C 
BRANCH   4   5
HETATM    5  O   LIG     1      17.550  35.862  25.138  1.00  0.00    -0.396 OA
HETATM    6  C   LIG     1      17.523  34.823  26.092  1.00  0.00     0.201 C 
ENDBRANCH   4   5
ENDBRANCH   1   4
TORSDOF 3
ENDMDL
MODEL 7
REMARK VINA RESULT:      -3.4      3.846      4.701
REMARK  3 active torsions:
REMARK  status: ('A' for Active; 'I' for Inactive)
REMARK    1  A    between atoms: C_2  and  C_3 
REMARK    2  A    between atoms: C_3  and  C_4 
REMARK    3  A    between atoms: C_4  and  O_5 
ROOT
HETATM    1  C   LIG     1      17.232  38.671  22.136  1.00  0.00     0.026 C 
ENDROOT
BRANCH   1   2
HETATM    2  C   LIG     1      17.059  37.150  22.269  1.00  0.00    -0.002 C 
HETATM    3  C   LIG     1      17.441  36.397  20.994  1.00  0.00     0.005 C 
ENDBRANCH   1   2
BRANCH   1   4
HETATM    4  C   LIG     1      18.689  39.088  21.925  1.00  0.00     0.167 C 
BRANCH   4   5
HETATM    5  O   LIG     1      18.832  39.617  20.624  1.00  0.00    -0.396 OA
HETATM    6  C   LIG     1      19.912  38.983  19.975  1.00  0.00     0.201 C 
ENDBRANCH   4   5
ENDBRANCH   1   4
TORSDOF 3
ENDMDL
MODEL 8
REMARK VINA RESULT:      -3.4      2.245      3.961
REMARK  3 active torsions:
REMARK  status: ('A' for Active; 'I' for Inactive)
REMARK    1  A    between atoms: C_2  and  C_3 
REMARK    2  A    between atoms: C_3  and  C_4 
REMARK    3  A    between atoms: C_4  and  O_5 
ROOT
HETATM    1  C   LIG     1      16.831  36.674  23.216  1.00  0.00     0.026 C 
ENDROOT
BRANCH   1   2
HETATM    2  C   LIG     1      16.984  35.427  22.333  1.00  0.00    -0.002 C 
HETATM    3  C   LIG     1      17.072  35.764  20.843  1.00  0.00     0.005 C 
ENDBRANCH   1   2
BRANCH   1   4
HETATM    4  C   LIG     1      17.329  36.455  24.646  1.00  0.00     0.167 C 
BRANCH   4   5
HETATM    5  O   LIG     1      17.368  35.068  24.911  1.00  0.00    -0.396 OA
HETATM    6  C   LIG     1      17.881  34.853  26.207  1.00  0.00     0.201 C 
ENDBRANCH   4   5
ENDBRANCH   1   4
TORSDOF 3
ENDMDL
MODEL 9
REMARK VINA RESULT:      -3.4      9.018     10.490
REMARK  3 active torsions:
REMARK  status: ('A' for Active; 'I' for Inactive)
REMARK    1  A    between atoms: C_2  and  C_3 
REMARK    2  A    between atoms: C_3  and  C_4 
REMARK    3  A    between atoms: C_4  and  O_5 
ROOT
HETATM    1  C   LIG     1      13.592  31.796  17.025  1.00  0.00     0.026 C 
ENDROOT
BRANCH   1   2
HETATM    2  C   LIG     1      13.138  30.721  16.027  1.00  0.00    -0.002 C 
HETATM    3  C   LIG     1      14.216  30.376  14.997  1.00  0.00     0.005 C 
ENDBRANCH   1   2
BRANCH   1   4
HETATM    4  C   LIG     1      14.928  32.438  16.641  1.00  0.00     0.167 C 
BRANCH   4   5
HETATM    5  O   LIG     1      15.503  33.024  17.790  1.00  0.00    -0.396 OA
HETATM    6  C   LIG     1      15.109  32.300  18.933  1.00  0.00     0.201 C 
ENDBRANCH   4   5
ENDBRANCH   1   4
TORSDOF 3
ENDMDL
MODEL 10
REMARK VINA RESULT:      -3.4      4.671      5.697
REMARK  3 active torsions:
REMARK  status: ('A' for Active; 'I' for Inactive)
REMARK    1  A    between atoms: C_2  and  C_3 
REMARK    2  A    between atoms: C_3  and  C_4 
REMARK    3  A    between atoms: C_4  and  O_5 
ROOT
HETATM    1  C   LIG     1      18.049  37.416  20.763  1.00  0.00     0.026 C 
ENDROOT
BRANCH   1   2
HETATM    2  C   LIG     1      19.059  37.282  19.613  1.00  0.00    -0.002 C 
HETATM    3  C   LIG     1      20.010  38.475  19.519  1.00  0.00     0.005 C 
ENDBRANCH   1   2
BRANCH   1   4
HETATM    4  C   LIG     1      17.371  36.090  21.116  1.00  0.00     0.167 C 
BRANCH   4   5
HETATM    5  O   LIG     1      16.814  35.532  19.945  1.00  0.00    -0.396 OA
HETATM    6  C   LIG     1      15.770  34.652  20.295  1.00  0.00     0.201 C 
ENDBRANCH   4   5
ENDBRANCH   1   4
TORSDOF 3
ENDMDL
MODEL 11
REMARK VINA RESULT:      -3.3     10.946     12.248
REMARK  3 active torsions:
REMARK  status: ('A' for Active; 'I' for Inactive)
REMARK    1  A    between atoms: C_2  and  C_3 
REMARK    2  A    between atoms: C_3  and  C_4 
REMARK    3  A    between atoms: C_4  and  O_5 
ROOT
HETATM    1  C   LIG     1      14.540  30.830  15.232  1.00  0.00     0.026 C 
ENDROOT
BRANCH   1   2
HETATM    2  C   LIG     1      14.985  30.283  13.867  1.00  0.00    -0.002 C 
HETATM    3  C   LIG     1      15.217  28.772  13.882  1.00  0.00     0.005 C 
ENDBRANCH   1   2
BRANCH   1   4
HETATM    4  C   LIG     1      13.089  30.480  15.569  1.00  0.00     0.167 C 
BRANCH   4   5
HETATM    5  O   LIG     1      12.772  31.007  16.840  1.00  0.00    -0.396 OA
HETATM    6  C   LIG     1      13.814  31.855  17.269  1.00  0.00     0.201 C 
ENDBRANCH   4   5
ENDBRANCH   1   4
TORSDOF 3
ENDMDL
MODEL 12
REMARK VINA RESULT:      -3.3     11.130     12.215
REMARK  3 active torsions:
REMARK  status: ('A' for Active; 'I' for Inactive)
REMARK    1  A    between atoms: C_2  and  C_3 
REMARK    2  A    between atoms: C_3  and  C_4 
REMARK    3  A    between atoms: C_4  and  O_5 
ROOT
HETATM    1  C   LIG     1      14.822  29.913  14.469  1.00  0.00     0.026 C 
ENDROOT
BRANCH   1   2
HETATM    2  C   LIG     1      13.436  30.220  15.054  1.00  0.00    -0.002 C 
HETATM    3  C   LIG     1      13.508  30.895  16.424  1.00  0.00     0.005 C 
ENDBRANCH   1   2
BRANCH   1   4
HETATM    4  C   LIG     1      15.501  31.146  13.868  1.00  0.00     0.167 C 
BRANCH   4   5
HETATM    5  O   LIG     1      16.656  31.447  14.621  1.00  0.00    -0.396 OA
HETATM    6  C   LIG     1      16.535  32.741  15.169  1.00  0.00     0.201 C 
ENDBRANCH   4   5
ENDBRANCH   1   4
TORSDOF 3
ENDMDL
MODEL 13
REMARK VINA RESULT:      -3.3      4.999      5.979
REMARK  3 active torsions:
REMARK  status: ('A' for Active; 'I' for Inactive)
REMARK    1  A    between atoms: C_2  and  C_3 
REMARK    2  A    between atoms: C_3  and  C_4 
REMARK    3  A    between atoms: C_4  and  O_5 
ROOT
HETATM    1  C   LIG     1      15.960  35.244  20.134  1.00  0.00     0.026 C 
ENDROOT
BRANCH   1   2
HETATM    2  C   LIG     1      16.913  35.912  21.137  1.00  0.00    -0.002 C 
HETATM    3  C   LIG     1      16.961  35.186  22.482  1.00  0.00     0.005 C 
ENDBRANCH   1   2
BRANCH   1   4
HETATM    4  C   LIG     1      15.581  33.816  20.535  1.00  0.00     0.167 C 
BRANCH   4   5
HETATM    5  O   LIG     1      15.616  32.993  19.389  1.00  0.00    -0.396 OA
HETATM    6  C   LIG     1      14.982  31.766  19.674  1.00  0.00     0.201 C 
ENDBRANCH   4   5
ENDBRANCH   1   4
TORSDOF 3
ENDMDL
MODEL 14
REMARK VINA RESULT:      -3.3     11.244     12.534
REMARK  3 active torsions:
REMARK  status: ('A' for Active; 'I' for Inactive)
REMARK    1  A    between atoms: C_2  and  C_3 
REMARK    2  A    between atoms: C_3  and  C_4 
REMARK    3  A    between atoms: C_4  and  O_5 
ROOT
HETATM    1  C   LIG     1      13.655  30.230  14.968  1.00  0.00     0.026 C 
ENDROOT
BRANCH   1   2
HETATM    2  C   LIG     1      12.950  30.708  16.246  1.00  0.00    -0.002 C 
HETATM    3  C   LIG     1      13.651  31.901  16.897  1.00  0.00     0.005 C 
ENDBRANCH   1   2
BRANCH   1   4
HETATM    4  C   LIG     1      15.021  30.888  14.761  1.00  0.00     0.167 C 
BRANCH   4   5
HETATM    5  O   LIG     1      15.773  30.110  13.853  1.00  0.00    -0.396 OA
HETATM    6  C   LIG     1      15.290  28.785  13.859  1.00  0.00     0.201 C 
ENDBRANCH   4   5
ENDBRANCH   1   4
TORSDOF 3
ENDMDL
MODEL 15
REMARK VINA RESULT:      -3.3      2.608      3.400
REMARK  3 active torsions:
REMARK  status: ('A' for Active; 'I' for Inactive)
REMARK    1  A    between atoms: C_2  and  C_3 
REMARK    2  A    between atoms: C_3  and  C_4 
REMARK    3  A    between atoms: C_4  and  O_5 
ROOT
HETATM    1  C   LIG     1      17.000  37.511  22.845  1.00  0.00     0.026 C 
ENDROOT
BRANCH   1   2
HETATM    2  C   LIG     1      17.135  36.973  24.277  1.00  0.00    -0.002 C 
HETATM    3  C   LIG     1      17.335  38.083  25.310  1.00  0.00     0.005 C 
ENDBRANCH   1   2
BRANCH   1   4
HETATM    4  C   LIG     1      17.950  38.676  22.555  1.00  0.00     0.167 C 
BRANCH   4   5
HETATM    5  O   LIG     1      17.833  39.037  21.195  1.00  0.00    -0.396 OA
HETATM    6  C   LIG     1      19.117  39.250  20.654  1.00  0.00     0.201 C 
ENDBRANCH   4   5
ENDBRANCH   1   4
TORSDOF 3
ENDMDL
MODEL 16
REMARK VINA RESULT:      -3.2      9.849     11.263
REMARK  3 active torsions:
REMARK  status: ('A' for Active; 'I' for Inactive)
REMARK    1  A    between atoms: C_2  and  C_3 
REMARK    2  A    between atoms: C_3  and  C_4 
REMARK    3  A    between atoms: C_4  and  O_5 
ROOT
HETATM    1  C   LIG     1      14.600  31.587  15.928  1.00  0.00     0.026 C 
ENDROOT
BRANCH   1   2
HETATM    2  C   LIG     1      14.287  30.373  15.040  1.00  0.00    -0.002 C 
HETATM    3  C   LIG     1      15.126  30.344  13.761  1.00  0.00     0.005 C 
ENDBRANCH   1   2
BRANCH   1   4
HETATM    4  C   LIG     1      15.883  32.312  15.514  1.00  0.00     0.167 C 
BRANCH   4   5
HETATM    5  O   LIG     1      15.720  33.697  15.739  1.00  0.00    -0.396 OA
HETATM    6  C   LIG     1      14.995  33.897  16.931  1.00  0.00     0.201 C 
ENDBRANCH   4   5
ENDBRANCH   1   4
TORSDOF 3
ENDMDL
MODEL 17
REMARK VINA RESULT:      -3.1      3.250      4.310
REMARK  3 active torsions:
REMARK  status: ('A' for Active; 'I' for Inactive)
REMARK    1  A    between atoms: C_2  and  C_3 
REMARK    2  A    between atoms: C_3  and  C_4 
REMARK    3  A    between atoms: C_4  and  O_5 
ROOT
HETATM    1  C   LIG     1      17.656  38.190  22.922  1.00  0.00     0.026 C 
ENDROOT
BRANCH   1   2
HETATM    2  C   LIG     1      17.904  39.312  21.903  1.00  0.00    -0.002 C 
HETATM    3  C   LIG     1      19.066  39.007  20.957  1.00  0.00     0.005 C 
ENDBRANCH   1   2
BRANCH   1   4
HETATM    4  C   LIG     1      16.496  37.274  22.528  1.00  0.00     0.167 C 
BRANCH   4   5
HETATM    5  O   LIG     1      17.005  35.992  22.223  1.00  0.00    -0.396 OA
HETATM    6  C   LIG     1      16.996  35.803  20.826  1.00  0.00     0.201 C 
ENDBRANCH   4   5
ENDBRANCH   1   4
TORSDOF 3
ENDMDL
MODEL 18
REMARK VINA RESULT:      -3.1      9.706     10.814
REMARK  3 active torsions:
REMARK  status: ('A' for Active; 'I' for Inactive)
REMARK    1  A    between atoms: C_2  and  C_3 
REMARK    2  A    between atoms: C_3  and  C_4 
REMARK    3  A    between atoms: C_4  and  O_5 
ROOT
HETATM    1  C   LIG     1      15.090  31.985  15.856  1.00  0.00     0.026 C 
ENDROOT
BRANCH   1   2
HETATM    2  C   LIG     1      13.884  31.244  16.452  1.00  0.00    -0.002 C 
HETATM    3  C   LIG     1      13.164  30.367  15.427  1.00  0.00     0.005 C 
ENDBRANCH   1   2
BRANCH   1   4
HETATM    4  C   LIG     1      15.329  33.351  16.505  1.00  0.00     0.167 C 
BRANCH   4   5
HETATM    5  O   LIG     1      16.336  34.031  15.786  1.00  0.00    -0.396 OA
HETATM    6  C   LIG     1      17.041  33.112  14.982  1.00  0.00     0.201 C 
ENDBRANCH   4   5
ENDBRANCH   1   4
TORSDOF 3
ENDMDL
MODEL 19
REMARK VINA RESULT:      -3.1      6.984      8.064
REMARK  3 active torsions:
REMARK  status: ('A' for Active; 'I' for Inactive)
REMARK    1  A    between atoms: C_2  and  C_3 
REMARK    2  A    between atoms: C_3  and  C_4 
REMARK    3  A    between atoms: C_4  and  O_5 
ROOT
HETATM    1  C   LIG     1      15.270  32.424  19.956  1.00  0.00     0.026 C 
ENDROOT
BRANCH   1   2
HETATM    2  C   LIG     1      15.745  33.771  20.523  1.00  0.00    -0.002 C 
HETATM    3  C   LIG     1      15.613  34.915  19.518  1.00  0.00     0.005 C 
ENDBRANCH   1   2
BRANCH   1   4
HETATM    4  C   LIG     1      15.029  32.467  18.446  1.00  0.00     0.167 C 
BRANCH   4   5
HETATM    5  O   LIG     1      14.060  31.496  18.108  1.00  0.00    -0.396 OA
HETATM    6  C   LIG     1      13.372  31.904  16.947  1.00  0.00     0.201 C 
ENDBRANCH   4   5
ENDBRANCH   1   4
TORSDOF 3
ENDMDL
MODEL 20
REMARK VINA RESULT:      -2.8      2.563      3.393
REMARK  3 active torsions:
REMARK  status: ('A' for Active; 'I' for Inactive)
REMARK    1  A    between atoms: C_2  and  C_3 
REMARK    2  A    between atoms: C_3  and  C_4 
REMARK    3  A    between atoms: C_4  and  O_5 
ROOT
HETATM    1  C   LIG     1      17.420  35.831  21.527  1.00  0.00     0.026 C 
ENDROOT
BRANCH   1   2
HETATM    2  C   LIG     1      16.720  34.902  22.529  1.00  0.00    -0.002 C 
HETATM    3  C   LIG     1      17.165  35.144  23.972  1.00  0.00     0.005 C 
ENDBRANCH   1   2
BRANCH   1   4
HETATM    4  C   LIG     1      16.888  37.266  21.574  1.00  0.00     0.167 C 
BRANCH   4   5
HETATM    5  O   LIG     1      17.865  38.099  22.161  1.00  0.00    -0.396 OA
HETATM    6  C   LIG     1      17.232  39.071  22.962  1.00  0.00     0.201 C 
ENDBRANCH   4   5
ENDBRANCH   1   4
TORSDOF 3
ENDMDL
