REMARK  0 active torsions:
REMARK  status: ('A' for Active; 'I' for Inactive)
ROOT
HETATM    1  C   LIG     1      -0.954  -1.049  -0.183  1.00  0.00    -0.026 C 
HETATM    2  C   LIG     1       0.342  -1.336  -0.372  1.00  0.00    -0.026 C 
HETATM    3  C   LIG     1       1.437  -0.330  -0.132  1.00  0.00     0.053 C 
HETATM    4  C   LIG     1       0.932   1.083   0.009  1.00  0.00    -0.026 C 
HETATM    5  C   LIG     1      -0.366   1.369   0.182  1.00  0.00    -0.026 C 
HETATM    6  C   LIG     1      -1.417   0.298   0.307  1.00  0.00     0.053 C 
ENDROOT
TORSDOF 0
