MODEL 1
REMARK VINA RESULT:      -5.1      0.000      0.000
REMARK  3 active torsions:
REMARK  status: ('A' for Active; 'I' for Inactive)
REMARK    1  A    between atoms: C_3  and  C_4 
REMARK    2  A    between atoms: C_4  and  C_5 
REMARK    3  A    between atoms: C_5  and  C_6 
ROOT
HETATM    1  C   LIG     1      16.941  35.429  22.719  1.00  0.00     0.012 C 
HETATM    2  C   LIG     1      16.986  36.550  23.160  1.00  0.00    -0.117 C 
HETATM    3  C   LIG     1      17.041  37.914  23.698  1.00  0.00     0.093 C 
ENDROOT
BRANCH   3   4
HETATM    4  C   LIG     1      17.205  37.884  25.220  1.00  0.00     0.012 C 
BRANCH   4   5
HETATM    5  C   LIG     1      18.520  37.203  25.616  1.00  0.00     0.000 C 
BRANCH   5   6
HETATM    6  C   LIG     1      18.303  36.218  26.771  1.00  0.00    -0.005 C 
HETATM    7  C   LIG     1      18.094  34.799  26.251  1.00  0.00     0.005 C 
ENDBRANCH   5   6
ENDBRANCH   4   5
ENDBRANCH   3   4
TORSDOF 3
ENDMDL
MODEL 2
REMARK VINA RESULT:      -4.8      1.110      3.707
REMARK  3 active torsions:
REMARK  status: ('A' for Active; 'I' for Inactive)
REMARK    1  A    between atoms: C_3  and  C_4 
REMARK    2  A    between atoms: C_4  and  C_5 
REMARK    3  A    between atoms: C_5  and  C_6 
ROOT
HETATM    1  C   LIG     1      17.648  34.760  26.144  1.00  0.00     0.012 C 
HETATM    2  C   LIG     1      18.014  35.894  25.964  1.00  0.00    -0.117 C 
HETATM    3  C   LIG     1      18.461  37.274  25.745  1.00  0.00     0.093 C 
ENDROOT
BRANCH   3   4
HETATM    4  C   LIG     1      17.338  38.107  25.122  1.00  0.00     0.012 C 
BRANCH   4   5
HETATM    5  C   LIG     1      17.030  37.634  23.696  1.00  0.00     0.000 C 
BRANCH   5   6
HETATM    6  C   LIG     1      16.910  38.823  22.736  1.00  0.00    -0.005 C 
HETATM    7  C   LIG     1      18.218  39.060  21.988  1.00  0.00     0.005 C 
ENDBRANCH   5   6
ENDBRANCH   4   5
ENDBRANCH   3   4
TORSDOF 3
ENDMDL
MODEL 3
REMARK VINA RESULT:      -4.7      1.530      2.128
REMARK  3 active torsions:
REMARK  status: ('A' for Active; 'I' for Inactive)
REMARK    1  A    between atoms: C_3  and  C_4 
REMARK    2  A    between atoms: C_4  and  C_5 
REMARK    3  A    between atoms: C_5  and  C_6 
ROOT
HETATM    1  C   LIG     1      18.739  39.095  21.275  1.00  0.00     0.012 C 
HETATM    2  C   LIG     1      17.877  38.837  22.077  1.00  0.00    -0.117 C 
HETATM    3  C   LIG     1      16.826  38.523  23.052  1.00  0.00     0.093 C 
ENDROOT
BRANCH   3   4
HETATM    4  C   LIG     1      17.223  37.304  23.890  1.00  0.00     0.012 C 
BRANCH   4   5
HETATM    5  C   LIG     1      17.427  37.692  25.359  1.00  0.00     0.000 C 
BRANCH   5   6
HETATM    6  C   LIG     1      18.487  36.803  26.020  1.00  0.00    -0.005 C 
HETATM    7  C   LIG     1      17.972  35.379  26.208  1.00  0.00     0.005 C 
ENDBRANCH   5   6
ENDBRANCH   4   5
ENDBRANCH   3   4
TORSDOF 3
ENDMDL
MODEL 4
REMARK VINA RESULT:      -4.6      1.119      1.525
REMARK  3 active torsions:
REMARK  status: ('A' for Active; 'I' for Inactive)
REMARK    1  A    between atoms: C_3  and  C_4 
REMARK    2  A    between atoms: C_4  and  C_5 
REMARK    3  A    between atoms: C_5  and  C_6 
ROOT
HETATM    1  C   LIG     1      17.044  35.663  21.228  1.00  0.00     0.012 C 
HETATM    2  C   LIG     1      16.805  36.357  22.183  1.00  0.00    -0.117 C 
HETATM    3  C   LIG     1      16.513  37.202  23.347  1.00  0.00     0.093 C 
ENDROOT
BRANCH   3   4
HETATM    4  C   LIG     1      17.392  36.800  24.534  1.00  0.00     0.012 C 
BRANCH   4   5
HETATM    5  C   LIG     1      17.296  35.293  24.802  1.00  0.00     0.000 C 
BRANCH   5   6
HETATM    6  C   LIG     1      17.935  34.932  26.148  1.00  0.00    -0.005 C 
HETATM    7  C   LIG     1      18.517  36.166  26.830  1.00  0.00     0.005 C 
ENDBRANCH   5   6
ENDBRANCH   4   5
ENDBRANCH   3   4
TORSDOF 3
ENDMDL
MODEL 5
REMARK VINA RESULT:      -4.4      2.317      4.459
REMARK  3 active torsions:
REMARK  status: ('A' for Active; 'I' for Inactive)
REMARK    1  A    between atoms: C_3  and  C_4 
REMARK    2  A    between atoms: C_4  and  C_5 
REMARK    3  A    between atoms: C_5  and  C_6 
ROOT
HETATM    1  C   LIG     1      18.285  36.913  26.112  1.00  0.00     0.012 C 
HETATM    2  C   LIG     1      17.645  37.054  25.101  1.00  0.00    -0.117 C 
HETATM    3  C   LIG     1      16.866  37.226  23.870  1.00  0.00     0.093 C 
ENDROOT
BRANCH   3   4
HETATM    4  C   LIG     1      17.221  38.553  23.193  1.00  0.00     0.012 C 
BRANCH   4   5
HETATM    5  C   LIG     1      17.722  38.322  21.762  1.00  0.00     0.000 C 
BRANCH   5   6
HETATM    6  C   LIG     1      18.688  39.433  21.333  1.00  0.00    -0.005 C 
HETATM    7  C   LIG     1      19.511  39.008  20.121  1.00  0.00     0.005 C 
ENDBRANCH   5   6
ENDBRANCH   4   5
ENDBRANCH   3   4
TORSDOF 3
ENDMDL
MODEL 6
REMARK VINA RESULT:      -4.3      3.039      4.709
REMARK  3 active torsions:
REMARK  status: ('A' for Active; 'I' for Inactive)
REMARK    1  A    between atoms: C_3  and  C_4 
REMARK    2  A    between atoms: C_4  and  C_5 
REMARK    3  A    between atoms: C_5  and  C_6 
ROOT
HETATM    1  C   LIG     1      16.987  35.219  22.175  1.00  0.00     0.012 C 
HETATM    2  C   LIG     1      16.871  36.415  22.263  1.00  0.00    -0.117 C 
HETATM    3  C   LIG     1      16.729  37.872  22.370  1.00  0.00     0.093 C 
ENDROOT
BRANCH   3   4
HETATM    4  C   LIG     1      18.102  38.548  22.324  1.00  0.00     0.012 C 
BRANCH   4   5
HETATM    5  C   LIG     1      18.342  39.210  20.962  1.00  0.00     0.000 C 
BRANCH   5   6
HETATM    6  C   LIG     1      19.005  38.232  19.985  1.00  0.00    -0.005 C 
HETATM    7  C   LIG     1      20.356  38.759  19.510  1.00  0.00     0.005 C 
ENDBRANCH   5   6
ENDBRANCH   4   5
ENDBRANCH   3   4
TORSDOF 3
ENDMDL
MODEL 7
REMARK VINA RESULT:      -4.3      3.297      4.985
REMARK  3 active torsions:
REMARK  status: ('A' for Active; 'I' for Inactive)
REMARK    1  A    between atoms: C_3  and  C_4 
REMARK    2  A    between atoms: C_4  and  C_5 
REMARK    3  A    between atoms: C_5  and  C_6 
ROOT
HETATM    1  C   LIG     1      20.156  38.897  19.649  1.00  0.00     0.012 C 
HETATM    2  C   LIG     1      19.477  37.904  19.572  1.00  0.00    -0.117 C 
HETATM    3  C   LIG     1      18.653  36.694  19.478  1.00  0.00     0.093 C 
ENDROOT
BRANCH   3   4
HETATM    4  C   LIG     1      17.812  36.520  20.746  1.00  0.00     0.012 C 
BRANCH   4   5
HETATM    5  C   LIG     1      16.578  35.653  20.471  1.00  0.00     0.000 C 
BRANCH   5   6
HETATM    6  C   LIG     1      16.205  34.821  21.704  1.00  0.00    -0.005 C 
HETATM    7  C   LIG     1      16.998  35.266  22.929  1.00  0.00     0.005 C 
ENDBRANCH   5   6
ENDBRANCH   4   5
ENDBRANCH   3   4
TORSDOF 3
ENDMDL
MODEL 8
REMARK VINA RESULT:      -4.3      4.471      5.637
REMARK  3 active torsions:
REMARK  status: ('A' for Active; 'I' for Inactive)
REMARK    1  A    between atoms: C_3  and  C_4 
REMARK    2  A    between atoms: C_4  and  C_5 
REMARK    3  A    between atoms: C_5  and  C_6 
ROOT
HETATM    1  C   LIG     1      18.693  39.592  17.061  1.00  0.00     0.012 C 
HETATM    2  C   LIG     1      19.047  39.057  18.081  1.00  0.00    -0.117 C 
HETATM    3  C   LIG     1      19.478  38.407  19.324  1.00  0.00     0.093 C 
ENDROOT
BRANCH   3   4
HETATM    4  C   LIG     1      18.830  39.085  20.535  1.00  0.00     0.012 C 
BRANCH   4   5
HETATM    5  C   LIG     1      17.939  38.101  21.302  1.00  0.00     0.000 C 
BRANCH   5   6
HETATM    6  C   LIG     1      17.948  36.719  20.639  1.00  0.00    -0.005 C 
HETATM    7  C   LIG     1      17.164  35.706  21.467  1.00  0.00     0.005 C 
ENDBRANCH   5   6
ENDBRANCH   4   5
ENDBRANCH   3   4
TORSDOF 3
ENDMDL
MODEL 9
REMARK VINA RESULT:      -4.2      1.756      4.223
REMARK  3 active torsions:
REMARK  status: ('A' for Active; 'I' for Inactive)
REMARK    1  A    between atoms: C_3  and  C_4 
REMARK    2  A    between atoms: C_4  and  C_5 
REMARK    3  A    between atoms: C_5  and  C_6 
ROOT
HETATM    1  C   LIG     1      17.527  36.059  25.354  1.00  0.00     0.012 C 
HETATM    2  C   LIG     1      17.260  35.614  24.266  1.00  0.00    -0.117 C 
HETATM    3  C   LIG     1      16.935  35.072  22.942  1.00  0.00     0.093 C 
ENDROOT
BRANCH   3   4
HETATM    4  C   LIG     1      16.484  36.193  22.001  1.00  0.00     0.012 C 
BRANCH   4   5
HETATM    5  C   LIG     1      17.526  36.441  20.904  1.00  0.00     0.000 C 
BRANCH   5   6
HETATM    6  C   LIG     1      18.108  37.856  21.009  1.00  0.00    -0.005 C 
HETATM    7  C   LIG     1      17.387  38.670  22.079  1.00  0.00     0.005 C 
ENDBRANCH   5   6
ENDBRANCH   4   5
ENDBRANCH   3   4
TORSDOF 3
ENDMDL
MODEL 10
REMARK VINA RESULT:      -4.1      8.114     10.405
REMARK  3 active torsions:
REMARK  status: ('A' for Active; 'I' for Inactive)
REMARK    1  A    between atoms: C_3  and  C_4 
REMARK    2  A    between atoms: C_4  and  C_5 
REMARK    3  A    between atoms: C_5  and  C_6 
ROOT
HETATM    1  C   LIG     1      15.090  30.106  14.080  1.00  0.00     0.012 C 
HETATM    2  C   LIG     1      14.174  30.317  14.833  1.00  0.00    -0.117 C 
HETATM    3  C   LIG     1      13.057  30.573  15.750  1.00  0.00     0.093 C 
ENDROOT
BRANCH   3   4
HETATM    4  C   LIG     1      13.581  30.937  17.143  1.00  0.00     0.012 C 
BRANCH   4   5
HETATM    5  C   LIG     1      14.174  32.351  17.153  1.00  0.00     0.000 C 
BRANCH   5   6
HETATM    6  C   LIG     1      15.158  32.525  18.317  1.00  0.00    -0.005 C 
HETATM    7  C   LIG     1      14.789  31.622  19.489  1.00  0.00     0.005 C 
ENDBRANCH   5   6
ENDBRANCH   4   5
ENDBRANCH   3   4
TORSDOF 3
ENDMDL
MODEL 11
REMARK VINA RESULT:      -4.1      3.403      4.392
REMARK  3 active torsions:
REMARK  status: ('A' for Active; 'I' for Inactive)
REMARK    1  A    between atoms: C_3  and  C_4 
REMARK    2  A    between atoms: C_4  and  C_5 
REMARK    3  A    between atoms: C_5  and  C_6 
ROOT
HETATM    1  C   LIG     1      18.979  39.007  18.307  1.00  0.00     0.012 C 
HETATM    2  C   LIG     1      19.106  39.048  19.504  1.00  0.00    -0.117 C 
HETATM    3  C   LIG     1      19.261  39.099  20.962  1.00  0.00     0.093 C 
ENDROOT
BRANCH   3   4
HETATM    4  C   LIG     1      17.892  39.076  21.647  1.00  0.00     0.012 C 
BRANCH   4   5
HETATM    5  C   LIG     1      17.421  37.636  21.883  1.00  0.00     0.000 C 
BRANCH   5   6
HETATM    6  C   LIG     1      16.752  37.494  23.255  1.00  0.00    -0.005 C 
HETATM    7  C   LIG     1      17.647  38.043  24.362  1.00  0.00     0.005 C 
ENDBRANCH   5   6
ENDBRANCH   4   5
ENDBRANCH   3   4
TORSDOF 3
ENDMDL
MODEL 12
REMARK VINA RESULT:      -4.1      2.756      4.544
REMARK  3 active torsions:
REMARK  status: ('A' for Active; 'I' for Inactive)
REMARK    1  A    between atoms: C_3  and  C_4 
REMARK    2  A    between atoms: C_4  and  C_5 
REMARK    3  A    between atoms: C_5  and  C_6 
ROOT
HETATM    1  C   LIG     1      15.393  32.091  19.528  1.00  0.00     0.012 C 
HETATM    2  C   LIG     1      15.355  33.082  20.213  1.00  0.00    -0.117 C 
HETATM    3  C   LIG     1      15.308  34.288  21.047  1.00  0.00     0.093 C 
ENDROOT
BRANCH   3   4
HETATM    4  C   LIG     1      16.244  35.362  20.487  1.00  0.00     0.012 C 
BRANCH   4   5
HETATM    5  C   LIG     1      17.138  35.941  21.590  1.00  0.00     0.000 C 
BRANCH   5   6
HETATM    6  C   LIG     1      16.983  35.150  22.894  1.00  0.00    -0.005 C 
HETATM    7  C   LIG     1      17.183  36.049  24.110  1.00  0.00     0.005 C 
ENDBRANCH   5   6
ENDBRANCH   4   5
ENDBRANCH   3   4
TORSDOF 3
ENDMDL
MODEL 13
REMARK VINA RESULT:      -4.0      2.504      4.186
REMARK  3 active torsions:
REMARK  status: ('A' for Active; 'I' for Inactive)
REMARK    1  A    between atoms: C_3  and  C_4 
REMARK    2  A    between atoms: C_4  and  C_5 
REMARK    3  A    between atoms: C_5  and  C_6 
ROOT
HETATM    1  C   LIG     1      15.453  33.003  20.086  1.00  0.00     0.012 C 
HETATM    2  C   LIG     1      15.760  34.067  20.562  1.00  0.00    -0.117 C 
HETATM    3  C   LIG     1      16.134  35.362  21.141  1.00  0.00     0.093 C 
ENDROOT
BRANCH   3   4
HETATM    4  C   LIG     1      16.941  35.161  22.427  1.00  0.00     0.012 C 
BRANCH   4   5
HETATM    5  C   LIG     1      16.967  36.444  23.265  1.00  0.00     0.000 C 
BRANCH   5   6
HETATM    6  C   LIG     1      16.037  37.508  22.670  1.00  0.00    -0.005 C 
HETATM    7  C   LIG     1      16.740  38.858  22.566  1.00  0.00     0.005 C 
ENDBRANCH   5   6
ENDBRANCH   4   5
ENDBRANCH   3   4
TORSDOF 3
ENDMDL
MODEL 14
REMARK VINA RESULT:      -3.9      6.900      9.132
REMARK  3 active torsions:
REMARK  status: ('A' for Active; 'I' for Inactive)
REMARK    1  A    between atoms: C_3  and  C_4 
REMARK    2  A    between atoms: C_4  and  C_5 
REMARK    3  A    between atoms: C_5  and  C_6 
ROOT
HETATM    1  C   LIG     1      13.285  30.371  15.481  1.00  0.00     0.012 C 
HETATM    2  C   LIG     1      14.164  31.148  15.758  1.00  0.00    -0.117 C 
HETATM    3  C   LIG     1      15.234  32.094  16.095  1.00  0.00     0.093 C 
ENDROOT
BRANCH   3   4
HETATM    4  C   LIG     1      14.880  32.870  17.366  1.00  0.00     0.012 C 
BRANCH   4   5
HETATM    5  C   LIG     1      14.565  31.915  18.523  1.00  0.00     0.000 C 
BRANCH   5   6
HETATM    6  C   LIG     1      15.590  32.064  19.654  1.00  0.00    -0.005 C 
HETATM    7  C   LIG     1      15.536  33.460  20.265  1.00  0.00     0.005 C 
ENDBRANCH   5   6
ENDBRANCH   4   5
ENDBRANCH   3   4
TORSDOF 3
ENDMDL
MODEL 15
REMARK VINA RESULT:      -3.9     10.692     11.781
REMARK  3 active torsions:
REMARK  status: ('A' for Active; 'I' for Inactive)
REMARK    1  A    between atoms: C_3  and  C_4 
REMARK    2  A    between atoms: C_4  and  C_5 
REMARK    3  A    between atoms: C_5  and  C_6 
ROOT
HETATM    1  C   LIG     1      13.056  31.274  16.605  1.00  0.00     0.012 C 
HETATM    2  C   LIG     1      13.485  30.661  15.660  1.00  0.00    -0.117 C 
HETATM    3  C   LIG     1      14.006  29.915  14.509  1.00  0.00     0.093 C 
ENDROOT
BRANCH   3   4
HETATM    4  C   LIG     1      15.507  30.170  14.341  1.00  0.00     0.012 C 
BRANCH   4   5
HETATM    5  C   LIG     1      15.788  31.660  14.115  1.00  0.00     0.000 C 
BRANCH   5   6
HETATM    6  C   LIG     1      16.786  32.195  15.149  1.00  0.00    -0.005 C 
HETATM    7  C   LIG     1      17.431  33.492  14.673  1.00  0.00     0.005 C 
ENDBRANCH   5   6
ENDBRANCH   4   5
ENDBRANCH   3   4
TORSDOF 3
ENDMDL
MODEL 16
REMARK VINA RESULT:      -3.9      9.327     10.958
REMARK  3 active torsions:
REMARK  status: ('A' for Active; 'I' for Inactive)
REMARK    1  A    between atoms: C_3  and  C_4 
REMARK    2  A    between atoms: C_4  and  C_5 
REMARK    3  A    between atoms: C_5  and  C_6 
ROOT
HETATM    1  C   LIG     1      15.103  29.438  14.026  1.00  0.00     0.012 C 
HETATM    2  C   LIG     1      15.471  30.585  14.085  1.00  0.00    -0.117 C 
HETATM    3  C   LIG     1      15.917  31.981  14.157  1.00  0.00     0.093 C 
ENDROOT
BRANCH   3   4
HETATM    4  C   LIG     1      16.373  32.324  15.578  1.00  0.00     0.012 C 
BRANCH   4   5
HETATM    5  C   LIG     1      15.283  33.094  16.333  1.00  0.00     0.000 C 
BRANCH   5   6
HETATM    6  C   LIG     1      14.583  32.193  17.357  1.00  0.00    -0.005 C 
HETATM    7  C   LIG     1      13.200  31.775  16.867  1.00  0.00     0.005 C 
ENDBRANCH   5   6
ENDBRANCH   4   5
ENDBRANCH   3   4
TORSDOF 3
ENDMDL
MODEL 17
REMARK VINA RESULT:      -3.9      9.294     10.811
REMARK  3 active torsions:
REMARK  status: ('A' for Active; 'I' for Inactive)
REMARK    1  A    between atoms: C_3  and  C_4 
REMARK    2  A    between atoms: C_4  and  C_5 
REMARK    3  A    between atoms: C_5  and  C_6 
ROOT
HETATM    1  C   LIG     1      13.332  29.976  15.019  1.00  0.00     0.012 C 
HETATM    2  C   LIG     1      13.335  30.810  15.889  1.00  0.00    -0.117 C 
HETATM    3  C   LIG     1      13.338  31.824  16.949  1.00  0.00     0.093 C 
ENDROOT
BRANCH   3   4
HETATM    4  C   LIG     1      14.774  32.215  17.311  1.00  0.00     0.012 C 
BRANCH   4   5
HETATM    5  C   LIG     1      15.385  33.119  16.234  1.00  0.00     0.000 C 
BRANCH   5   6
HETATM    6  C   LIG     1      16.509  32.396  15.483  1.00  0.00    -0.005 C 
HETATM    7  C   LIG     1      16.184  32.263  13.999  1.00  0.00     0.005 C 
ENDBRANCH   5   6
ENDBRANCH   4   5
ENDBRANCH   3   4
TORSDOF 3
ENDMDL
MODEL 18
REMARK VINA RESULT:      -3.8      9.662     12.053
REMARK  3 active torsions:
REMARK  status: ('A' for Active; 'I' for Inactive)
REMARK    1  A    between atoms: C_3  and  C_4 
REMARK    2  A    between atoms: C_4  and  C_5 
REMARK    3  A    between atoms: C_5  and  C_6 
ROOT
HETATM    1  C   LIG     1      15.893  31.881  13.423  1.00  0.00     0.012 C 
HETATM    2  C   LIG     1      15.510  30.818  13.844  1.00  0.00    -0.117 C 
HETATM    3  C   LIG     1      15.044  29.525  14.357  1.00  0.00     0.093 C 
ENDROOT
BRANCH   3   4
HETATM    4  C   LIG     1      13.520  29.528  14.509  1.00  0.00     0.012 C 
BRANCH   4   5
HETATM    5  C   LIG     1      13.054  30.726  15.344  1.00  0.00     0.000 C 
BRANCH   5   6
HETATM    6  C   LIG     1      13.587  30.636  16.779  1.00  0.00    -0.005 C 
HETATM    7  C   LIG     1      14.068  31.997  17.274  1.00  0.00     0.005 C 
ENDBRANCH   5   6
ENDBRANCH   4   5
ENDBRANCH   3   4
TORSDOF 3
ENDMDL
MODEL 19
REMARK VINA RESULT:      -3.8      9.039     11.676
REMARK  3 active torsions:
REMARK  status: ('A' for Active; 'I' for Inactive)
REMARK    1  A    between atoms: C_3  and  C_4 
REMARK    2  A    between atoms: C_4  and  C_5 
REMARK    3  A    between atoms: C_5  and  C_6 
ROOT
HETATM    1  C   LIG     1      14.743  33.697  16.928  1.00  0.00     0.012 C 
HETATM    2  C   LIG     1      14.355  32.556  16.912  1.00  0.00    -0.117 C 
HETATM    3  C   LIG     1      13.881  31.167  16.893  1.00  0.00     0.093 C 
ENDROOT
BRANCH   3   4
HETATM    4  C   LIG     1      13.843  30.634  15.458  1.00  0.00     0.012 C 
BRANCH   4   5
HETATM    5  C   LIG     1      15.113  31.025  14.694  1.00  0.00     0.000 C 
BRANCH   5   6
HETATM    6  C   LIG     1      15.349  30.087  13.504  1.00  0.00    -0.005 C 
HETATM    7  C   LIG     1      15.185  28.627  13.914  1.00  0.00     0.005 C 
ENDBRANCH   5   6
ENDBRANCH   4   5
ENDBRANCH   3   4
TORSDOF 3
ENDMDL
MODEL 20
REMARK VINA RESULT:      -3.7     10.791     12.452
REMARK  3 active torsions:
REMARK  status: ('A' for Active; 'I' for Inactive)
REMARK    1  A    between atoms: C_3  and  C_4 
REMARK    2  A    between atoms: C_4  and  C_5 
REMARK    3  A    between atoms: C_5  and  C_6 
ROOT
HETATM    1  C   LIG     1      15.101  27.524  13.613  1.00  0.00     0.012 C 
HETATM    2  C   LIG     1      15.184  28.726  13.612  1.00  0.00    -0.117 C 
HETATM    3  C   LIG     1      15.284  30.190  13.610  1.00  0.00     0.093 C 
ENDROOT
BRANCH   3   4
HETATM    4  C   LIG     1      14.770  30.763  14.934  1.00  0.00     0.012 C 
BRANCH   4   5
HETATM    5  C   LIG     1      15.567  32.009  15.337  1.00  0.00     0.000 C 
BRANCH   5   6
HETATM    6  C   LIG     1      16.430  32.511  14.173  1.00  0.00    -0.005 C 
HETATM    7  C   LIG     1      17.705  33.177  14.680  1.00  0.00     0.005 C 
ENDBRANCH   5   6
ENDBRANCH   4   5
ENDBRANCH   3   4
TORSDOF 3
ENDMDL
