MODEL 1
REMARK VINA RESULT:      -5.4      0.000      0.000
REMARK  5 active torsions:
REMARK  status: ('A' for Active; 'I' for Inactive)
REMARK    1  A    between atoms: C_2  and  O_3 
REMARK    2  A    between atoms: O_3  and  C_4 
REMARK    3  A    between atoms: C_4  and  C_5 
REMARK    4  A    between atoms: C_5  and  C_6 
REMARK    5  A    between atoms: C_6  and  C_7 
ROOT
HETATM    1  C   LIG     1      17.204  38.358  25.374  1.00  0.00     0.178 C 
ENDROOT
BRANCH   1   2
HETATM    2  O   LIG     1      16.219  38.014  24.399  1.00  0.00    -0.322 OA
BRANCH   2   3
HETATM    3  C   LIG     1      16.460  38.031  23.021  1.00  0.00     0.254 C 
HETATM    4  O   LIG     1      16.926  39.059  22.459  1.00  0.00    -0.266 OA
HETATM    5  C   LIG     1      16.215  36.799  22.219  1.00  0.00     0.126 C 
ENDBRANCH   2   3
ENDBRANCH   1   2
BRANCH   1   6
HETATM    6  C   LIG     1      18.394  37.388  25.336  1.00  0.00     0.027 C 
BRANCH   6   7
HETATM    7  C   LIG     1      18.509  36.494  26.586  1.00  0.00     0.002 C 
BRANCH   7   8
HETATM    8  C   LIG     1      18.219  35.003  26.341  1.00  0.00    -0.004 C 
HETATM    9  C   LIG     1      17.325  34.761  25.126  1.00  0.00     0.005 C 
ENDBRANCH   7   8
ENDBRANCH   6   7
ENDBRANCH   1   6
TORSDOF 5
ENDMDL
MODEL 2
REMARK VINA RESULT:      -5.1      2.272      4.540
REMARK  5 active torsions:
REMARK  status: ('A' for Active; 'I' for Inactive)
REMARK    1  A    between atoms: C_2  and  O_3 
REMARK    2  A    between atoms: O_3  and  C_4 
REMARK    3  A    between atoms: C_4  and  C_5 
REMARK    4  A    between atoms: C_5  and  C_6 
REMARK    5  A    between atoms: C_6  and  C_7 
ROOT
HETATM    1  C   LIG     1      16.491  37.398  22.873  1.00  0.00     0.178 C 
ENDROOT
BRANCH   1   2
HETATM    2  O   LIG     1      17.138  36.775  23.983  1.00  0.00    -0.322 OA
BRANCH   2   3
HETATM    3  C   LIG     1      17.520  37.464  25.139  1.00  0.00     0.254 C 
HETATM    4  O   LIG     1      17.121  38.641  25.352  1.00  0.00    -0.266 OA
HETATM    5  C   LIG     1      18.363  36.776  26.157  1.00  0.00     0.126 C 
ENDBRANCH   2   3
ENDBRANCH   1   2
BRANCH   1   6
HETATM    6  C   LIG     1      17.462  37.606  21.702  1.00  0.00     0.027 C 
BRANCH   6   7
HETATM    7  C   LIG     1      18.076  39.019  21.646  1.00  0.00     0.002 C 
BRANCH   7   8
HETATM    8  C   LIG     1      19.186  39.197  20.596  1.00  0.00    -0.004 C 
HETATM    9  C   LIG     1      19.350  37.980  19.688  1.00  0.00     0.005 C 
ENDBRANCH   7   8
ENDBRANCH   6   7
ENDBRANCH   1   6
TORSDOF 5
ENDMDL
MODEL 3
REMARK VINA RESULT:      -5.0      2.854      3.865
REMARK  5 active torsions:
REMARK  status: ('A' for Active; 'I' for Inactive)
REMARK    1  A    between atoms: C_2  and  O_3 
REMARK    2  A    between atoms: O_3  and  C_4 
REMARK    3  A    between atoms: C_4  and  C_5 
REMARK    4  A    between atoms: C_5  and  C_6 
REMARK    5  A    between atoms: C_6  and  C_7 
ROOT
HETATM    1  C   LIG     1      18.515  39.106  22.128  1.00  0.00     0.178 C 
ENDROOT
BRANCH   1   2
HETATM    2  O   LIG     1      18.608  39.441  20.744  1.00  0.00    -0.322 OA
BRANCH   2   3
HETATM    3  C   LIG     1      19.463  38.789  19.848  1.00  0.00     0.254 C 
HETATM    4  O   LIG     1      20.450  39.390  19.343  1.00  0.00    -0.266 OA
HETATM    5  C   LIG     1      19.235  37.351  19.534  1.00  0.00     0.126 C 
ENDBRANCH   2   3
ENDBRANCH   1   2
BRANCH   1   6
HETATM    6  C   LIG     1      17.082  38.714  22.517  1.00  0.00     0.027 C 
BRANCH   6   7
HETATM    7  C   LIG     1      17.007  37.645  23.624  1.00  0.00     0.002 C 
BRANCH   7   8
HETATM    8  C   LIG     1      17.460  38.123  25.014  1.00  0.00    -0.004 C 
HETATM    9  C   LIG     1      18.059  37.005  25.864  1.00  0.00     0.005 C 
ENDBRANCH   7   8
ENDBRANCH   6   7
ENDBRANCH   1   6
TORSDOF 5
ENDMDL
MODEL 4
REMARK VINA RESULT:      -5.0      1.310      2.204
REMARK  5 active torsions:
REMARK  status: ('A' for Active; 'I' for Inactive)
REMARK    1  A    between atoms: C_2  and  O_3 
REMARK    2  A    between atoms: O_3  and  C_4 
REMARK    3  A    between atoms: C_4  and  C_5 
REMARK    4  A    between atoms: C_5  and  C_6 
REMARK    5  A    between atoms: C_6  and  C_7 
ROOT
HETATM    1  C   LIG     1      16.874  36.086  22.812  1.00  0.00     0.178 C 
ENDROOT
BRANCH   1   2
HETATM    2  O   LIG     1      16.318  37.289  22.281  1.00  0.00    -0.322 OA
BRANCH   2   3
HETATM    3  C   LIG     1      16.911  38.547  22.439  1.00  0.00     0.254 C 
HETATM    4  O   LIG     1      16.434  39.391  23.245  1.00  0.00    -0.266 OA
HETATM    5  C   LIG     1      18.155  38.869  21.685  1.00  0.00     0.126 C 
ENDBRANCH   2   3
ENDBRANCH   1   2
BRANCH   1   6
HETATM    6  C   LIG     1      17.232  36.240  24.297  1.00  0.00     0.027 C 
BRANCH   6   7
HETATM    7  C   LIG     1      17.300  34.904  25.063  1.00  0.00     0.002 C 
BRANCH   7   8
HETATM    8  C   LIG     1      18.241  34.906  26.280  1.00  0.00    -0.004 C 
HETATM    9  C   LIG     1      18.539  36.311  26.802  1.00  0.00     0.005 C 
ENDBRANCH   7   8
ENDBRANCH   6   7
ENDBRANCH   1   6
TORSDOF 5
ENDMDL
MODEL 5
REMARK VINA RESULT:      -5.0      1.536      2.059
REMARK  5 active torsions:
REMARK  status: ('A' for Active; 'I' for Inactive)
REMARK    1  A    between atoms: C_2  and  O_3 
REMARK    2  A    between atoms: O_3  and  C_4 
REMARK    3  A    between atoms: C_4  and  C_5 
REMARK    4  A    between atoms: C_5  and  C_6 
REMARK    5  A    between atoms: C_6  and  C_7 
ROOT
HETATM    1  C   LIG     1      17.102  38.367  23.422  1.00  0.00     0.178 C 
ENDROOT
BRANCH   1   2
HETATM    2  O   LIG     1      16.361  37.189  23.106  1.00  0.00    -0.322 OA
BRANCH   2   3
HETATM    3  C   LIG     1      16.902  36.100  22.413  1.00  0.00     0.254 C 
HETATM    4  O   LIG     1      16.982  34.964  22.954  1.00  0.00    -0.266 OA
HETATM    5  C   LIG     1      17.335  36.276  20.998  1.00  0.00     0.126 C 
ENDBRANCH   2   3
ENDBRANCH   1   2
BRANCH   1   6
HETATM    6  C   LIG     1      18.133  38.103  24.529  1.00  0.00     0.027 C 
BRANCH   6   7
HETATM    7  C   LIG     1      17.546  37.404  25.772  1.00  0.00     0.002 C 
BRANCH   7   8
HETATM    8  C   LIG     1      18.498  36.410  26.461  1.00  0.00    -0.004 C 
HETATM    9  C   LIG     1      18.086  34.953  26.260  1.00  0.00     0.005 C 
ENDBRANCH   7   8
ENDBRANCH   6   7
ENDBRANCH   1   6
TORSDOF 5
ENDMDL
MODEL 6
REMARK VINA RESULT:      -4.9      1.509      2.009
REMARK  5 active torsions:
REMARK  status: ('A' for Active; 'I' for Inactive)
REMARK    1  A    between atoms: C_2  and  O_3 
REMARK    2  A    between atoms: O_3  and  C_4 
REMARK    3  A    between atoms: C_4  and  C_5 
REMARK    4  A    between atoms: C_5  and  C_6 
REMARK    5  A    between atoms: C_6  and  C_7 
ROOT
HETATM    1  C   LIG     1      16.923  37.567  23.325  1.00  0.00     0.178 C 
ENDROOT
BRANCH   1   2
HETATM    2  O   LIG     1      17.667  38.635  22.739  1.00  0.00    -0.322 OA
BRANCH   2   3
HETATM    3  C   LIG     1      18.205  38.583  21.449  1.00  0.00     0.254 C 
HETATM    4  O   LIG     1      18.785  39.585  20.949  1.00  0.00    -0.266 OA
HETATM    5  C   LIG     1      18.140  37.309  20.679  1.00  0.00     0.126 C 
ENDBRANCH   2   3
ENDBRANCH   1   2
BRANCH   1   6
HETATM    6  C   LIG     1      16.960  37.631  24.859  1.00  0.00     0.027 C 
BRANCH   6   7
HETATM    7  C   LIG     1      18.344  37.316  25.461  1.00  0.00     0.002 C 
BRANCH   7   8
HETATM    8  C   LIG     1      18.322  36.338  26.649  1.00  0.00    -0.004 C 
HETATM    9  C   LIG     1      18.097  34.888  26.224  1.00  0.00     0.005 C 
ENDBRANCH   7   8
ENDBRANCH   6   7
ENDBRANCH   1   6
TORSDOF 5
ENDMDL
MODEL 7
REMARK VINA RESULT:      -4.9      2.355      4.580
REMARK  5 active torsions:
REMARK  status: ('A' for Active; 'I' for Inactive)
REMARK    1  A    between atoms: C_2  and  O_3 
REMARK    2  A    between atoms: O_3  and  C_4 
REMARK    3  A    between atoms: C_4  and  C_5 
REMARK    4  A    between atoms: C_5  and  C_6 
REMARK    5  A    between atoms: C_6  and  C_7 
ROOT
HETATM    1  C   LIG     1      17.681  38.208  24.222  1.00  0.00     0.178 C 
ENDROOT
BRANCH   1   2
HETATM    2  O   LIG     1      17.093  37.339  25.190  1.00  0.00    -0.322 OA
BRANCH   2   3
HETATM    3  C   LIG     1      17.813  36.364  25.889  1.00  0.00     0.254 C 
HETATM    4  O   LIG     1      18.656  36.690  26.768  1.00  0.00    -0.266 OA
HETATM    5  C   LIG     1      17.536  34.923  25.632  1.00  0.00     0.126 C 
ENDBRANCH   2   3
ENDBRANCH   1   2
BRANCH   1   6
HETATM    6  C   LIG     1      16.876  38.219  22.914  1.00  0.00     0.027 C 
BRANCH   6   7
HETATM    7  C   LIG     1      17.745  38.090  21.647  1.00  0.00     0.002 C 
BRANCH   7   8
HETATM    8  C   LIG     1      18.624  39.315  21.342  1.00  0.00    -0.004 C 
HETATM    9  C   LIG     1      19.580  39.088  20.172  1.00  0.00     0.005 C 
ENDBRANCH   7   8
ENDBRANCH   6   7
ENDBRANCH   1   6
TORSDOF 5
ENDMDL
MODEL 8
REMARK VINA RESULT:      -4.9      1.611      3.737
REMARK  5 active torsions:
REMARK  status: ('A' for Active; 'I' for Inactive)
REMARK    1  A    between atoms: C_2  and  O_3 
REMARK    2  A    between atoms: O_3  and  C_4 
REMARK    3  A    between atoms: C_4  and  C_5 
REMARK    4  A    between atoms: C_5  and  C_6 
REMARK    5  A    between atoms: C_6  and  C_7 
ROOT
HETATM    1  C   LIG     1      17.492  38.436  24.644  1.00  0.00     0.178 C 
ENDROOT
BRANCH   1   2
HETATM    2  O   LIG     1      17.044  37.160  25.102  1.00  0.00    -0.322 OA
BRANCH   2   3
HETATM    3  C   LIG     1      17.822  36.309  25.895  1.00  0.00     0.254 C 
HETATM    4  O   LIG     1      18.710  36.771  26.661  1.00  0.00    -0.266 OA
HETATM    5  C   LIG     1      17.556  34.842  25.873  1.00  0.00     0.126 C 
ENDBRANCH   2   3
ENDBRANCH   1   2
BRANCH   1   6
HETATM    6  C   LIG     1      17.294  38.589  23.129  1.00  0.00     0.027 C 
BRANCH   6   7
HETATM    7  C   LIG     1      16.370  37.522  22.510  1.00  0.00     0.002 C 
BRANCH   7   8
HETATM    8  C   LIG     1      17.079  36.503  21.602  1.00  0.00    -0.004 C 
HETATM    9  C   LIG     1      16.980  35.069  22.122  1.00  0.00     0.005 C 
ENDBRANCH   7   8
ENDBRANCH   6   7
ENDBRANCH   1   6
TORSDOF 5
ENDMDL
MODEL 9
REMARK VINA RESULT:      -4.8      2.358      3.215
REMARK  5 active torsions:
REMARK  status: ('A' for Active; 'I' for Inactive)
REMARK    1  A    between atoms: C_2  and  O_3 
REMARK    2  A    between atoms: O_3  and  C_4 
REMARK    3  A    between atoms: C_4  and  C_5 
REMARK    4  A    between atoms: C_5  and  C_6 
REMARK    5  A    between atoms: C_6  and  C_7 
ROOT
HETATM    1  C   LIG     1      16.559  36.410  22.589  1.00  0.00     0.178 C 
ENDROOT
BRANCH   1   2
HETATM    2  O   LIG     1      17.432  37.024  21.640  1.00  0.00    -0.322 OA
BRANCH   2   3
HETATM    3  C   LIG     1      17.738  36.459  20.397  1.00  0.00     0.254 C 
HETATM    4  O   LIG     1      16.939  35.663  19.834  1.00  0.00    -0.266 OA
HETATM    5  C   LIG     1      18.999  36.851  19.705  1.00  0.00     0.126 C 
ENDBRANCH   2   3
ENDBRANCH   1   2
BRANCH   1   6
HETATM    6  C   LIG     1      17.148  35.099  23.128  1.00  0.00     0.027 C 
BRANCH   6   7
HETATM    7  C   LIG     1      17.206  35.029  24.667  1.00  0.00     0.002 C 
BRANCH   7   8
HETATM    8  C   LIG     1      17.667  36.326  25.354  1.00  0.00    -0.004 C 
HETATM    9  C   LIG     1      18.299  36.083  26.724  1.00  0.00     0.005 C 
ENDBRANCH   7   8
ENDBRANCH   6   7
ENDBRANCH   1   6
TORSDOF 5
ENDMDL
MODEL 10
REMARK VINA RESULT:      -4.7      1.653      3.915
REMARK  5 active torsions:
REMARK  status: ('A' for Active; 'I' for Inactive)
REMARK    1  A    between atoms: C_2  and  O_3 
REMARK    2  A    between atoms: O_3  and  C_4 
REMARK    3  A    between atoms: C_4  and  C_5 
REMARK    4  A    between atoms: C_5  and  C_6 
REMARK    5  A    between atoms: C_6  and  C_7 
ROOT
HETATM    1  C   LIG     1      17.437  38.569  21.912  1.00  0.00     0.178 C 
ENDROOT
BRANCH   1   2
HETATM    2  O   LIG     1      17.952  38.523  23.243  1.00  0.00    -0.322 OA
BRANCH   2   3
HETATM    3  C   LIG     1      17.244  37.988  24.325  1.00  0.00     0.254 C 
HETATM    4  O   LIG     1      15.983  37.961  24.324  1.00  0.00    -0.266 OA
HETATM    5  C   LIG     1      17.993  37.391  25.467  1.00  0.00     0.126 C 
ENDBRANCH   2   3
ENDBRANCH   1   2
BRANCH   1   6
HETATM    6  C   LIG     1      18.339  37.801  20.935  1.00  0.00     0.027 C 
BRANCH   6   7
HETATM    7  C   LIG     1      17.753  36.451  20.477  1.00  0.00     0.002 C 
BRANCH   7   8
HETATM    8  C   LIG     1      17.083  35.629  21.591  1.00  0.00    -0.004 C 
HETATM    9  C   LIG     1      15.583  35.434  21.370  1.00  0.00     0.005 C 
ENDBRANCH   7   8
ENDBRANCH   6   7
ENDBRANCH   1   6
TORSDOF 5
ENDMDL
MODEL 11
REMARK VINA RESULT:      -4.6      2.776      4.546
REMARK  5 active torsions:
REMARK  status: ('A' for Active; 'I' for Inactive)
REMARK    1  A    between atoms: C_2  and  O_3 
REMARK    2  A    between atoms: O_3  and  C_4 
REMARK    3  A    between atoms: C_4  and  C_5 
REMARK    4  A    between atoms: C_5  and  C_6 
REMARK    5  A    between atoms: C_6  and  C_7 
ROOT
HETATM    1  C   LIG     1      17.426  37.990  22.931  1.00  0.00     0.178 C 
ENDROOT
BRANCH   1   2
HETATM    2  O   LIG     1      16.453  36.986  22.643  1.00  0.00    -0.322 OA
BRANCH   2   3
HETATM    3  C   LIG     1      16.747  35.619  22.596  1.00  0.00     0.254 C 
HETATM    4  O   LIG     1      17.181  35.015  23.613  1.00  0.00    -0.266 OA
HETATM    5  C   LIG     1      16.487  34.857  21.341  1.00  0.00     0.126 C 
ENDBRANCH   2   3
ENDBRANCH   1   2
BRANCH   1   6
HETATM    6  C   LIG     1      17.591  38.966  21.756  1.00  0.00     0.027 C 
BRANCH   6   7
HETATM    7  C   LIG     1      19.011  38.986  21.158  1.00  0.00     0.002 C 
BRANCH   7   8
HETATM    8  C   LIG     1      19.106  38.483  19.707  1.00  0.00    -0.004 C 
HETATM    9  C   LIG     1      19.081  36.959  19.601  1.00  0.00     0.005 C 
ENDBRANCH   7   8
ENDBRANCH   6   7
ENDBRANCH   1   6
TORSDOF 5
ENDMDL
MODEL 12
REMARK VINA RESULT:      -4.5      8.792     10.148
REMARK  5 active torsions:
REMARK  status: ('A' for Active; 'I' for Inactive)
REMARK    1  A    between atoms: C_2  and  O_3 
REMARK    2  A    between atoms: O_3  and  C_4 
REMARK    3  A    between atoms: C_4  and  C_5 
REMARK    4  A    between atoms: C_5  and  C_6 
REMARK    5  A    between atoms: C_6  and  C_7 
ROOT
HETATM    1  C   LIG     1      15.033  33.705  16.663  1.00  0.00     0.178 C 
ENDROOT
BRANCH   1   2
HETATM    2  O   LIG     1      16.213  33.888  15.880  1.00  0.00    -0.322 OA
BRANCH   2   3
HETATM    3  C   LIG     1      16.797  32.872  15.116  1.00  0.00     0.254 C 
HETATM    4  O   LIG     1      18.013  32.573  15.258  1.00  0.00    -0.266 OA
HETATM    5  C   LIG     1      15.953  32.096  14.163  1.00  0.00     0.126 C 
ENDBRANCH   2   3
ENDBRANCH   1   2
BRANCH   1   6
HETATM    6  C   LIG     1      15.242  32.646  17.754  1.00  0.00     0.027 C 
BRANCH   6   7
HETATM    7  C   LIG     1      14.114  31.597  17.828  1.00  0.00     0.002 C 
BRANCH   7   8
HETATM    8  C   LIG     1      13.044  31.724  16.730  1.00  0.00    -0.004 C 
HETATM    9  C   LIG     1      13.029  30.535  15.771  1.00  0.00     0.005 C 
ENDBRANCH   7   8
ENDBRANCH   6   7
ENDBRANCH   1   6
TORSDOF 5
ENDMDL
MODEL 13
REMARK VINA RESULT:      -4.4      4.357      5.758
REMARK  5 active torsions:
REMARK  status: ('A' for Active; 'I' for Inactive)
REMARK    1  A    between atoms: C_2  and  O_3 
REMARK    2  A    between atoms: O_3  and  C_4 
REMARK    3  A    between atoms: C_4  and  C_5 
REMARK    4  A    between atoms: C_5  and  C_6 
REMARK    5  A    between atoms: C_6  and  C_7 
ROOT
HETATM    1  C   LIG     1      15.366  35.200  21.430  1.00  0.00     0.178 C 
ENDROOT
BRANCH   1   2
HETATM    2  O   LIG     1      15.065  33.839  21.124  1.00  0.00    -0.322 OA
BRANCH   2   3
HETATM    3  C   LIG     1      15.375  33.238  19.898  1.00  0.00     0.254 C 
HETATM    4  O   LIG     1      15.641  33.938  18.884  1.00  0.00    -0.266 OA
HETATM    5  C   LIG     1      15.447  31.752  19.809  1.00  0.00     0.126 C 
ENDBRANCH   2   3
ENDBRANCH   1   2
BRANCH   1   6
HETATM    6  C   LIG     1      16.859  35.391  21.735  1.00  0.00     0.027 C 
BRANCH   6   7
HETATM    7  C   LIG     1      17.428  36.736  21.242  1.00  0.00     0.002 C 
BRANCH   7   8
HETATM    8  C   LIG     1      18.369  36.632  20.030  1.00  0.00    -0.004 C 
HETATM    9  C   LIG     1      19.150  37.919  19.768  1.00  0.00     0.005 C 
ENDBRANCH   7   8
ENDBRANCH   6   7
ENDBRANCH   1   6
TORSDOF 5
ENDMDL
MODEL 14
REMARK VINA RESULT:      -4.4      8.463     10.502
REMARK  5 active torsions:
REMARK  status: ('A' for Active; 'I' for Inactive)
REMARK    1  A    between atoms: C_2  and  O_3 
REMARK    2  A    between atoms: O_3  and  C_4 
REMARK    3  A    between atoms: C_4  and  C_5 
REMARK    4  A    between atoms: C_5  and  C_6 
REMARK    5  A    between atoms: C_6  and  C_7 
ROOT
HETATM    1  C   LIG     1      15.336  33.180  16.441  1.00  0.00     0.178 C 
ENDROOT
BRANCH   1   2
HETATM    2  O   LIG     1      15.564  32.761  17.786  1.00  0.00    -0.322 OA
BRANCH   2   3
HETATM    3  C   LIG     1      14.690  31.925  18.492  1.00  0.00     0.254 C 
HETATM    4  O   LIG     1      13.673  31.432  17.932  1.00  0.00    -0.266 OA
HETATM    5  C   LIG     1      14.999  31.570  19.906  1.00  0.00     0.126 C 
ENDBRANCH   2   3
ENDBRANCH   1   2
BRANCH   1   6
HETATM    6  C   LIG     1      16.389  32.600  15.486  1.00  0.00     0.027 C 
BRANCH   6   7
HETATM    7  C   LIG     1      15.792  31.776  14.328  1.00  0.00     0.002 C 
BRANCH   7   8
HETATM    8  C   LIG     1      14.861  30.631  14.764  1.00  0.00    -0.004 C 
HETATM    9  C   LIG     1      15.111  29.334  13.998  1.00  0.00     0.005 C 
ENDBRANCH   7   8
ENDBRANCH   6   7
ENDBRANCH   1   6
TORSDOF 5
ENDMDL
MODEL 15
REMARK VINA RESULT:      -4.4      8.883     10.913
REMARK  5 active torsions:
REMARK  status: ('A' for Active; 'I' for Inactive)
REMARK    1  A    between atoms: C_2  and  O_3 
REMARK    2  A    between atoms: O_3  and  C_4 
REMARK    3  A    between atoms: C_4  and  C_5 
REMARK    4  A    between atoms: C_5  and  C_6 
REMARK    5  A    between atoms: C_6  and  C_7 
ROOT
HETATM    1  C   LIG     1      13.143  31.889  16.890  1.00  0.00     0.178 C 
ENDROOT
BRANCH   1   2
HETATM    2  O   LIG     1      13.845  31.636  18.107  1.00  0.00    -0.322 OA
BRANCH   2   3
HETATM    3  C   LIG     1      15.010  32.316  18.480  1.00  0.00     0.254 C 
HETATM    4  O   LIG     1      15.517  33.191  17.727  1.00  0.00    -0.266 OA
HETATM    5  C   LIG     1      15.625  32.040  19.809  1.00  0.00     0.126 C 
ENDBRANCH   2   3
ENDBRANCH   1   2
BRANCH   1   6
HETATM    6  C   LIG     1      13.221  30.688  15.936  1.00  0.00     0.027 C 
BRANCH   6   7
HETATM    7  C   LIG     1      14.503  30.654  15.081  1.00  0.00     0.002 C 
BRANCH   7   8
HETATM    8  C   LIG     1      14.590  29.475  14.097  1.00  0.00    -0.004 C 
HETATM    9  C   LIG     1      13.305  28.651  14.037  1.00  0.00     0.005 C 
ENDBRANCH   7   8
ENDBRANCH   6   7
ENDBRANCH   1   6
TORSDOF 5
ENDMDL
MODEL 16
REMARK VINA RESULT:      -4.3      2.069      4.545
REMARK  5 active torsions:
REMARK  status: ('A' for Active; 'I' for Inactive)
REMARK    1  A    between atoms: C_2  and  O_3 
REMARK    2  A    between atoms: O_3  and  C_4 
REMARK    3  A    between atoms: C_4  and  C_5 
REMARK    4  A    between atoms: C_5  and  C_6 
REMARK    5  A    between atoms: C_6  and  C_7 
ROOT
HETATM    1  C   LIG     1      17.253  36.591  22.912  1.00  0.00     0.178 C 
ENDROOT
BRANCH   1   2
HETATM    2  O   LIG     1      16.999  36.347  24.296  1.00  0.00    -0.322 OA
BRANCH   2   3
HETATM    3  C   LIG     1      17.400  37.214  25.318  1.00  0.00     0.254 C 
HETATM    4  O   LIG     1      16.879  38.356  25.439  1.00  0.00    -0.266 OA
HETATM    5  C   LIG     1      18.415  36.758  26.309  1.00  0.00     0.126 C 
ENDBRANCH   2   3
ENDBRANCH   1   2
BRANCH   1   6
HETATM    6  C   LIG     1      16.699  35.461  22.032  1.00  0.00     0.027 C 
BRANCH   6   7
HETATM    7  C   LIG     1      16.459  35.875  20.566  1.00  0.00     0.002 C 
BRANCH   7   8
HETATM    8  C   LIG     1      15.685  34.846  19.725  1.00  0.00    -0.004 C 
HETATM    9  C   LIG     1      15.564  33.485  20.409  1.00  0.00     0.005 C 
ENDBRANCH   7   8
ENDBRANCH   6   7
ENDBRANCH   1   6
TORSDOF 5
ENDMDL
MODEL 17
REMARK VINA RESULT:      -4.3      6.040      7.524
REMARK  5 active torsions:
REMARK  status: ('A' for Active; 'I' for Inactive)
REMARK    1  A    between atoms: C_2  and  O_3 
REMARK    2  A    between atoms: O_3  and  C_4 
REMARK    3  A    between atoms: C_4  and  C_5 
REMARK    4  A    between atoms: C_5  and  C_6 
REMARK    5  A    between atoms: C_6  and  C_7 
ROOT
HETATM    1  C   LIG     1      15.614  32.299  19.725  1.00  0.00     0.178 C 
ENDROOT
BRANCH   1   2
HETATM    2  O   LIG     1      14.438  31.747  19.131  1.00  0.00    -0.322 OA
BRANCH   2   3
HETATM    3  C   LIG     1      14.183  31.776  17.756  1.00  0.00     0.254 C 
HETATM    4  O   LIG     1      13.319  31.014  17.242  1.00  0.00    -0.266 OA
HETATM    5  C   LIG     1      14.900  32.761  16.898  1.00  0.00     0.126 C 
ENDBRANCH   2   3
ENDBRANCH   1   2
BRANCH   1   6
HETATM    6  C   LIG     1      15.291  33.554  20.548  1.00  0.00     0.027 C 
BRANCH   6   7
HETATM    7  C   LIG     1      15.781  34.865  19.903  1.00  0.00     0.002 C 
BRANCH   7   8
HETATM    8  C   LIG     1      16.777  35.670  20.756  1.00  0.00    -0.004 C 
HETATM    9  C   LIG     1      16.961  35.095  22.160  1.00  0.00     0.005 C 
ENDBRANCH   7   8
ENDBRANCH   6   7
ENDBRANCH   1   6
TORSDOF 5
ENDMDL
MODEL 18
REMARK VINA RESULT:      -4.2      9.097     11.241
REMARK  5 active torsions:
REMARK  status: ('A' for Active; 'I' for Inactive)
REMARK    1  A    between atoms: C_2  and  O_3 
REMARK    2  A    between atoms: O_3  and  C_4 
REMARK    3  A    between atoms: C_4  and  C_5 
REMARK    4  A    between atoms: C_5  and  C_6 
REMARK    5  A    between atoms: C_6  and  C_7 
ROOT
HETATM    1  C   LIG     1      16.504  32.216  14.979  1.00  0.00     0.178 C 
ENDROOT
BRANCH   1   2
HETATM    2  O   LIG     1      15.923  33.457  15.380  1.00  0.00    -0.322 OA
BRANCH   2   3
HETATM    3  C   LIG     1      15.241  33.634  16.589  1.00  0.00     0.254 C 
HETATM    4  O   LIG     1      14.723  34.745  16.883  1.00  0.00    -0.266 OA
HETATM    5  C   LIG     1      15.078  32.477  17.514  1.00  0.00     0.126 C 
ENDBRANCH   2   3
ENDBRANCH   1   2
BRANCH   1   6
HETATM    6  C   LIG     1      15.940  31.742  13.632  1.00  0.00     0.027 C 
BRANCH   6   7
HETATM    7  C   LIG     1      15.302  30.339  13.682  1.00  0.00     0.002 C 
BRANCH   7   8
HETATM    8  C   LIG     1      14.182  30.178  14.725  1.00  0.00    -0.004 C 
HETATM    9  C   LIG     1      13.143  29.132  14.327  1.00  0.00     0.005 C 
ENDBRANCH   7   8
ENDBRANCH   6   7
ENDBRANCH   1   6
TORSDOF 5
ENDMDL
MODEL 19
REMARK VINA RESULT:      -4.2      4.165      5.442
REMARK  5 active torsions:
REMARK  status: ('A' for Active; 'I' for Inactive)
REMARK    1  A    between atoms: C_2  and  O_3 
REMARK    2  A    between atoms: O_3  and  C_4 
REMARK    3  A    between atoms: C_4  and  C_5 
REMARK    4  A    between atoms: C_5  and  C_6 
REMARK    5  A    between atoms: C_6  and  C_7 
ROOT
HETATM    1  C   LIG     1      16.256  34.710  20.833  1.00  0.00     0.178 C 
ENDROOT
BRANCH   1   2
HETATM    2  O   LIG     1      15.309  33.643  20.786  1.00  0.00    -0.322 OA
BRANCH   2   3
HETATM    3  C   LIG     1      15.242  32.717  19.738  1.00  0.00     0.254 C 
HETATM    4  O   LIG     1      15.538  33.052  18.559  1.00  0.00    -0.266 OA
HETATM    5  C   LIG     1      14.871  31.304  20.032  1.00  0.00     0.126 C 
ENDBRANCH   2   3
ENDBRANCH   1   2
BRANCH   1   6
HETATM    6  C   LIG     1      15.767  35.856  21.731  1.00  0.00     0.027 C 
BRANCH   6   7
HETATM    7  C   LIG     1      16.797  36.301  22.788  1.00  0.00     0.002 C 
BRANCH   7   8
HETATM    8  C   LIG     1      16.542  37.694  23.388  1.00  0.00    -0.004 C 
HETATM    9  C   LIG     1      17.175  37.875  24.767  1.00  0.00     0.005 C 
ENDBRANCH   7   8
ENDBRANCH   6   7
ENDBRANCH   1   6
TORSDOF 5
ENDMDL
MODEL 20
REMARK VINA RESULT:      -4.1      8.828     10.998
REMARK  5 active torsions:
REMARK  status: ('A' for Active; 'I' for Inactive)
REMARK    1  A    between atoms: C_2  and  O_3 
REMARK    2  A    between atoms: O_3  and  C_4 
REMARK    3  A    between atoms: C_4  and  C_5 
REMARK    4  A    between atoms: C_5  and  C_6 
REMARK    5  A    between atoms: C_6  and  C_7 
ROOT
HETATM    1  C   LIG     1      13.020  31.569  16.336  1.00  0.00     0.178 C 
ENDROOT
BRANCH   1   2
HETATM    2  O   LIG     1      13.885  31.529  17.471  1.00  0.00    -0.322 OA
BRANCH   2   3
HETATM    3  C   LIG     1      14.811  32.534  17.770  1.00  0.00     0.254 C 
HETATM    4  O   LIG     1      15.594  32.421  18.752  1.00  0.00    -0.266 OA
HETATM    5  C   LIG     1      14.911  33.726  16.881  1.00  0.00     0.126 C 
ENDBRANCH   2   3
ENDBRANCH   1   2
BRANCH   1   6
HETATM    6  C   LIG     1      13.250  30.364  15.412  1.00  0.00     0.027 C 
BRANCH   6   7
HETATM    7  C   LIG     1      14.724  30.156  15.015  1.00  0.00     0.002 C 
BRANCH   7   8
HETATM    8  C   LIG     1      15.121  30.777  13.664  1.00  0.00    -0.004 C 
HETATM    9  C   LIG     1      16.028  31.998  13.812  1.00  0.00     0.005 C 
ENDBRANCH   7   8
ENDBRANCH   6   7
ENDBRANCH   1   6
TORSDOF 5
ENDMDL
