MODEL 1
REMARK VINA RESULT:      -5.2      0.000      0.000
REMARK  0 active torsions:
REMARK  status: ('A' for Active; 'I' for Inactive)
ROOT
HETATM    1  C   LIG     1      18.431  35.937  26.723  1.00  0.00    -0.026 C 
HETATM    2  C   LIG     1      18.382  37.155  26.165  1.00  0.00    -0.026 C 
HETATM    3  C   LIG     1      17.600  37.439  24.910  1.00  0.00     0.053 C 
HETATM    4  C   LIG     1      17.171  36.194  24.177  1.00  0.00    -0.026 C 
HETATM    5  C   LIG     1      17.235  34.975  24.730  1.00  0.00    -0.026 C 
HETATM    6  C   LIG     1      17.688  34.758  26.150  1.00  0.00     0.053 C 
ENDROOT
TORSDOF 0
ENDMDL
MODEL 2
REMARK VINA RESULT:      -5.2      0.481      2.054
REMARK  0 active torsions:
REMARK  status: ('A' for Active; 'I' for Inactive)
ROOT
HETATM    1  C   LIG     1      17.153  36.796  24.262  1.00  0.00    -0.026 C 
HETATM    2  C   LIG     1      17.800  37.545  25.166  1.00  0.00    -0.026 C 
HETATM    3  C   LIG     1      18.562  36.945  26.318  1.00  0.00     0.053 C 
HETATM    4  C   LIG     1      18.256  35.487  26.544  1.00  0.00    -0.026 C 
HETATM    5  C   LIG     1      17.595  34.743  25.647  1.00  0.00    -0.026 C 
HETATM    6  C   LIG     1      17.156  35.290  24.314  1.00  0.00     0.053 C 
ENDROOT
TORSDOF 0
ENDMDL
MODEL 3
REMARK VINA RESULT:      -5.2      0.117      2.888
REMARK  0 active torsions:
REMARK  status: ('A' for Active; 'I' for Inactive)
ROOT
HETATM    1  C   LIG     1      17.207  36.306  24.240  1.00  0.00    -0.026 C 
HETATM    2  C   LIG     1      17.236  35.074  24.767  1.00  0.00    -0.026 C 
HETATM    3  C   LIG     1      17.754  34.799  26.154  1.00  0.00     0.053 C 
HETATM    4  C   LIG     1      18.524  35.952  26.746  1.00  0.00    -0.026 C 
HETATM    5  C   LIG     1      18.506  37.180  26.209  1.00  0.00    -0.026 C 
HETATM    6  C   LIG     1      17.669  37.519  25.004  1.00  0.00     0.053 C 
ENDROOT
TORSDOF 0
ENDMDL
MODEL 4
REMARK VINA RESULT:      -5.2      0.469      2.051
REMARK  0 active torsions:
REMARK  status: ('A' for Active; 'I' for Inactive)
ROOT
HETATM    1  C   LIG     1      18.241  35.566  26.563  1.00  0.00    -0.026 C 
HETATM    2  C   LIG     1      17.593  34.800  25.674  1.00  0.00    -0.026 C 
HETATM    3  C   LIG     1      17.140  35.321  24.335  1.00  0.00     0.053 C 
HETATM    4  C   LIG     1      17.181  36.824  24.232  1.00  0.00    -0.026 C 
HETATM    5  C   LIG     1      17.815  37.590  25.131  1.00  0.00    -0.026 C 
HETATM    6  C   LIG     1      18.587  37.005  26.285  1.00  0.00     0.053 C 
ENDROOT
TORSDOF 0
ENDMDL
MODEL 5
REMARK VINA RESULT:      -5.1      0.230      2.545
REMARK  0 active torsions:
REMARK  status: ('A' for Active; 'I' for Inactive)
ROOT
HETATM    1  C   LIG     1      17.301  35.071  24.721  1.00  0.00    -0.026 C 
HETATM    2  C   LIG     1      17.843  34.832  25.924  1.00  0.00    -0.026 C 
HETATM    3  C   LIG     1      18.325  35.936  26.828  1.00  0.00     0.053 C 
HETATM    4  C   LIG     1      18.447  37.268  26.134  1.00  0.00    -0.026 C 
HETATM    5  C   LIG     1      17.918  37.501  24.925  1.00  0.00    -0.026 C 
HETATM    6  C   LIG     1      17.109  36.467  24.188  1.00  0.00     0.053 C 
ENDROOT
TORSDOF 0
ENDMDL
MODEL 6
REMARK VINA RESULT:      -4.9      4.586      5.871
REMARK  0 active torsions:
REMARK  status: ('A' for Active; 'I' for Inactive)
ROOT
HETATM    1  C   LIG     1      18.137  36.671  20.368  1.00  0.00    -0.026 C 
HETATM    2  C   LIG     1      19.117  37.006  19.515  1.00  0.00    -0.026 C 
HETATM    3  C   LIG     1      19.820  38.337  19.572  1.00  0.00     0.053 C 
HETATM    4  C   LIG     1      19.111  39.352  20.432  1.00  0.00    -0.026 C 
HETATM    5  C   LIG     1      18.121  39.018  21.272  1.00  0.00    -0.026 C 
HETATM    6  C   LIG     1      17.677  37.593  21.467  1.00  0.00     0.053 C 
ENDROOT
TORSDOF 0
ENDMDL
MODEL 7
REMARK VINA RESULT:      -4.9      4.528      6.004
REMARK  0 active torsions:
REMARK  status: ('A' for Active; 'I' for Inactive)
ROOT
HETATM    1  C   LIG     1      19.652  38.260  19.541  1.00  0.00    -0.026 C 
HETATM    2  C   LIG     1      19.174  37.007  19.539  1.00  0.00    -0.026 C 
HETATM    3  C   LIG     1      18.009  36.584  20.394  1.00  0.00     0.053 C 
HETATM    4  C   LIG     1      17.658  37.583  21.467  1.00  0.00    -0.026 C 
HETATM    5  C   LIG     1      18.149  38.830  21.476  1.00  0.00    -0.026 C 
HETATM    6  C   LIG     1      19.044  39.352  20.383  1.00  0.00     0.053 C 
ENDROOT
TORSDOF 0
ENDMDL
MODEL 8
REMARK VINA RESULT:      -4.9      4.532      5.563
REMARK  0 active torsions:
REMARK  status: ('A' for Active; 'I' for Inactive)
ROOT
HETATM    1  C   LIG     1      17.663  37.577  21.461  1.00  0.00    -0.026 C 
HETATM    2  C   LIG     1      18.132  38.833  21.461  1.00  0.00    -0.026 C 
HETATM    3  C   LIG     1      19.058  39.350  20.391  1.00  0.00     0.053 C 
HETATM    4  C   LIG     1      19.656  38.261  19.539  1.00  0.00    -0.026 C 
HETATM    5  C   LIG     1      19.196  37.002  19.552  1.00  0.00    -0.026 C 
HETATM    6  C   LIG     1      18.007  36.588  20.378  1.00  0.00     0.053 C 
ENDROOT
TORSDOF 0
ENDMDL
MODEL 9
REMARK VINA RESULT:      -4.8      4.533      5.759
REMARK  0 active torsions:
REMARK  status: ('A' for Active; 'I' for Inactive)
ROOT
HETATM    1  C   LIG     1      19.178  39.249  20.574  1.00  0.00    -0.026 C 
HETATM    2  C   LIG     1      19.663  38.391  19.665  1.00  0.00    -0.026 C 
HETATM    3  C   LIG     1      19.051  37.036  19.422  1.00  0.00     0.053 C 
HETATM    4  C   LIG     1      18.082  36.616  20.497  1.00  0.00    -0.026 C 
HETATM    5  C   LIG     1      17.610  37.471  21.415  1.00  0.00    -0.026 C 
HETATM    6  C   LIG     1      17.965  38.934  21.410  1.00  0.00     0.053 C 
ENDROOT
TORSDOF 0
ENDMDL
MODEL 10
REMARK VINA RESULT:      -4.8      4.507      5.647
REMARK  0 active torsions:
REMARK  status: ('A' for Active; 'I' for Inactive)
ROOT
HETATM    1  C   LIG     1      19.379  38.396  19.475  1.00  0.00    -0.026 C 
HETATM    2  C   LIG     1      18.933  39.220  20.434  1.00  0.00    -0.026 C 
HETATM    3  C   LIG     1      18.105  38.737  21.596  1.00  0.00     0.053 C 
HETATM    4  C   LIG     1      17.558  37.346  21.405  1.00  0.00    -0.026 C 
HETATM    5  C   LIG     1      17.993  36.529  20.435  1.00  0.00    -0.026 C 
HETATM    6  C   LIG     1      19.105  36.915  19.496  1.00  0.00     0.053 C 
ENDROOT
TORSDOF 0
ENDMDL
MODEL 11
REMARK VINA RESULT:      -4.8      4.539      5.806
REMARK  0 active torsions:
REMARK  status: ('A' for Active; 'I' for Inactive)
ROOT
HETATM    1  C   LIG     1      18.342  36.709  20.176  1.00  0.00    -0.026 C 
HETATM    2  C   LIG     1      17.638  37.151  21.228  1.00  0.00    -0.026 C 
HETATM    3  C   LIG     1      17.678  38.586  21.683  1.00  0.00     0.053 C 
HETATM    4  C   LIG     1      18.807  39.377  21.073  1.00  0.00    -0.026 C 
HETATM    5  C   LIG     1      19.520  38.926  20.031  1.00  0.00    -0.026 C 
HETATM    6  C   LIG     1      19.212  37.619  19.349  1.00  0.00     0.053 C 
ENDROOT
TORSDOF 0
ENDMDL
MODEL 12
REMARK VINA RESULT:      -4.7      4.521      5.805
REMARK  0 active torsions:
REMARK  status: ('A' for Active; 'I' for Inactive)
ROOT
HETATM    1  C   LIG     1      17.703  38.408  21.732  1.00  0.00    -0.026 C 
HETATM    2  C   LIG     1      17.593  37.190  21.181  1.00  0.00    -0.026 C 
HETATM    3  C   LIG     1      18.480  36.729  20.055  1.00  0.00     0.053 C 
HETATM    4  C   LIG     1      19.250  37.847  19.401  1.00  0.00    -0.026 C 
HETATM    5  C   LIG     1      19.345  39.068  19.945  1.00  0.00    -0.026 C 
HETATM    6  C   LIG     1      18.740  39.404  21.282  1.00  0.00     0.053 C 
ENDROOT
TORSDOF 0
ENDMDL
MODEL 13
REMARK VINA RESULT:      -4.5      1.174      2.506
REMARK  0 active torsions:
REMARK  status: ('A' for Active; 'I' for Inactive)
ROOT
HETATM    1  C   LIG     1      17.343  34.957  24.551  1.00  0.00    -0.026 C 
HETATM    2  C   LIG     1      17.003  35.189  23.275  1.00  0.00    -0.026 C 
HETATM    3  C   LIG     1      16.929  36.578  22.697  1.00  0.00     0.053 C 
HETATM    4  C   LIG     1      16.943  37.664  23.743  1.00  0.00    -0.026 C 
HETATM    5  C   LIG     1      17.268  37.427  25.021  1.00  0.00    -0.026 C 
HETATM    6  C   LIG     1      17.702  36.068  25.504  1.00  0.00     0.053 C 
ENDROOT
TORSDOF 0
ENDMDL
MODEL 14
REMARK VINA RESULT:      -4.4      1.279      1.773
REMARK  0 active torsions:
REMARK  status: ('A' for Active; 'I' for Inactive)
ROOT
HETATM    1  C   LIG     1      17.448  36.363  25.306  1.00  0.00    -0.026 C 
HETATM    2  C   LIG     1      17.076  37.524  24.746  1.00  0.00    -0.026 C 
HETATM    3  C   LIG     1      16.495  37.603  23.359  1.00  0.00     0.053 C 
HETATM    4  C   LIG     1      16.679  36.340  22.558  1.00  0.00    -0.026 C 
HETATM    5  C   LIG     1      17.066  35.185  23.117  1.00  0.00    -0.026 C 
HETATM    6  C   LIG     1      17.292  35.042  24.599  1.00  0.00     0.053 C 
ENDROOT
TORSDOF 0
ENDMDL
MODEL 15
REMARK VINA RESULT:      -4.3      3.820      4.871
REMARK  0 active torsions:
REMARK  status: ('A' for Active; 'I' for Inactive)
ROOT
HETATM    1  C   LIG     1      16.733  37.847  22.403  1.00  0.00    -0.026 C 
HETATM    2  C   LIG     1      16.473  36.590  22.016  1.00  0.00    -0.026 C 
HETATM    3  C   LIG     1      17.318  35.863  21.002  1.00  0.00     0.053 C 
HETATM    4  C   LIG     1      18.249  36.769  20.239  1.00  0.00    -0.026 C 
HETATM    5  C   LIG     1      18.496  38.031  20.619  1.00  0.00    -0.026 C 
HETATM    6  C   LIG     1      17.907  38.626  21.870  1.00  0.00     0.053 C 
ENDROOT
TORSDOF 0
ENDMDL
MODEL 16
REMARK VINA RESULT:      -4.3      1.563      3.021
REMARK  0 active torsions:
REMARK  status: ('A' for Active; 'I' for Inactive)
ROOT
HETATM    1  C   LIG     1      16.684  37.667  22.849  1.00  0.00    -0.026 C 
HETATM    2  C   LIG     1      16.867  37.638  24.177  1.00  0.00    -0.026 C 
HETATM    3  C   LIG     1      17.299  36.394  24.908  1.00  0.00     0.053 C 
HETATM    4  C   LIG     1      17.182  35.141  24.079  1.00  0.00    -0.026 C 
HETATM    5  C   LIG     1      16.983  35.172  22.754  1.00  0.00    -0.026 C 
HETATM    6  C   LIG     1      16.919  36.461  21.978  1.00  0.00     0.053 C 
ENDROOT
TORSDOF 0
ENDMDL
MODEL 17
REMARK VINA RESULT:      -4.2      3.366      4.750
REMARK  0 active torsions:
REMARK  status: ('A' for Active; 'I' for Inactive)
ROOT
HETATM    1  C   LIG     1      16.747  36.373  22.122  1.00  0.00    -0.026 C 
HETATM    2  C   LIG     1      17.215  36.058  20.906  1.00  0.00    -0.026 C 
HETATM    3  C   LIG     1      18.207  36.922  20.172  1.00  0.00     0.053 C 
HETATM    4  C   LIG     1      18.360  38.297  20.768  1.00  0.00    -0.026 C 
HETATM    5  C   LIG     1      17.878  38.615  21.978  1.00  0.00    -0.026 C 
HETATM    6  C   LIG     1      17.195  37.606  22.863  1.00  0.00     0.053 C 
ENDROOT
TORSDOF 0
ENDMDL
MODEL 18
REMARK VINA RESULT:      -4.2     10.790     12.204
REMARK  0 active torsions:
REMARK  status: ('A' for Active; 'I' for Inactive)
ROOT
HETATM    1  C   LIG     1      15.525  30.880  14.477  1.00  0.00    -0.026 C 
HETATM    2  C   LIG     1      14.580  29.977  14.181  1.00  0.00    -0.026 C 
HETATM    3  C   LIG     1      13.256  29.926  14.897  1.00  0.00     0.053 C 
HETATM    4  C   LIG     1      13.229  30.742  16.164  1.00  0.00    -0.026 C 
HETATM    5  C   LIG     1      14.183  31.633  16.466  1.00  0.00    -0.026 C 
HETATM    6  C   LIG     1      15.329  31.933  15.536  1.00  0.00     0.053 C 
ENDROOT
TORSDOF 0
ENDMDL
MODEL 19
REMARK VINA RESULT:      -4.2      2.230      3.969
REMARK  0 active torsions:
REMARK  status: ('A' for Active; 'I' for Inactive)
ROOT
HETATM    1  C   LIG     1      17.490  37.595  21.680  1.00  0.00    -0.026 C 
HETATM    2  C   LIG     1      17.456  36.389  21.095  1.00  0.00    -0.026 C 
HETATM    3  C   LIG     1      17.066  35.140  21.841  1.00  0.00     0.053 C 
HETATM    4  C   LIG     1      17.047  35.316  23.337  1.00  0.00    -0.026 C 
HETATM    5  C   LIG     1      17.097  36.522  23.920  1.00  0.00    -0.026 C 
HETATM    6  C   LIG     1      17.119  37.801  23.125  1.00  0.00     0.053 C 
ENDROOT
TORSDOF 0
ENDMDL
MODEL 20
REMARK VINA RESULT:      -3.7      2.378      3.769
REMARK  0 active torsions:
REMARK  status: ('A' for Active; 'I' for Inactive)
ROOT
HETATM    1  C   LIG     1      16.862  38.592  22.112  1.00  0.00    -0.026 C 
HETATM    2  C   LIG     1      18.100  39.022  22.393  1.00  0.00    -0.026 C 
HETATM    3  C   LIG     1      18.825  38.635  23.655  1.00  0.00     0.053 C 
HETATM    4  C   LIG     1      17.928  38.014  24.695  1.00  0.00    -0.026 C 
HETATM    5  C   LIG     1      16.684  37.599  24.416  1.00  0.00    -0.026 C 
HETATM    6  C   LIG     1      16.105  37.667  23.028  1.00  0.00     0.053 C 
ENDROOT
TORSDOF 0
ENDMDL
