REMARK  5 active torsions:
REMARK  status: ('A' for Active; 'I' for Inactive)
REMARK    1  A    between atoms: C_2  and  C_3 
REMARK    2  A    between atoms: C_3  and  C_4 
REMARK    3  A    between atoms: C_4  and  C_5 
REMARK    4  A    between atoms: C_5  and  C_6 
REMARK    5  A    between atoms: C_6  and  C_7 
ROOT
HETATM    1  C   LIG     1       0.343  -0.603   0.496  1.00  0.00     0.000 C 
ENDROOT
BRANCH   1   2
HETATM    2  C   LIG     1       0.959   0.783   0.236  1.00  0.00    -0.000 C 
BRANCH   2   3
HETATM    3  C   LIG     1       2.495   0.754   0.238  1.00  0.00    -0.005 C 
HETATM    4  C   LIG     1       3.072   0.009  -0.965  1.00  0.00     0.005 C 
ENDBRANCH   2   3
ENDBRANCH   1   2
BRANCH   1   5
HETATM    5  C   LIG     1      -1.172  -0.538   0.751  1.00  0.00     0.001 C 
BRANCH   5   6
HETATM    6  C   LIG     1      -1.967  -0.166  -0.509  1.00  0.00     0.011 C 
BRANCH   6   7
HETATM    7  C   LIG     1      -3.470  -0.239  -0.250  1.00  0.00     0.085 C 
HETATM    8 BR   LIG     1      -4.447   0.248  -1.851  1.00  0.00    -0.097 Br
ENDBRANCH   6   7
ENDBRANCH   5   6
ENDBRANCH   1   5
TORSDOF 5
