MODEL 1
REMARK VINA RESULT:      -5.3      0.000      0.000
REMARK  4 active torsions:
REMARK  status: ('A' for Active; 'I' for Inactive)
REMARK    1  A    between atoms: C_3  and  C_4 
REMARK    2  A    between atoms: C_4  and  C_5 
REMARK    3  A    between atoms: C_5  and  C_6 
REMARK    4  A    between atoms: C_6  and  C_7 
ROOT
HETATM    1  C   LIG     1      17.614  34.699  26.173  1.00  0.00     0.012 C 
HETATM    2  C   LIG     1      17.989  35.827  25.974  1.00  0.00    -0.117 C 
HETATM    3  C   LIG     1      18.447  37.201  25.730  1.00  0.00     0.093 C 
ENDROOT
BRANCH   3   4
HETATM    4  C   LIG     1      17.310  38.097  25.212  1.00  0.00     0.012 C 
BRANCH   4   5
HETATM    5  C   LIG     1      17.416  38.429  23.713  1.00  0.00     0.001 C 
BRANCH   5   6
HETATM    6  C   LIG     1      16.384  37.678  22.856  1.00  0.00    -0.000 C 
BRANCH   6   7
HETATM    7  C   LIG     1      17.032  36.642  21.924  1.00  0.00    -0.005 C 
HETATM    8  C   LIG     1      16.885  35.212  22.441  1.00  0.00     0.005 C 
ENDBRANCH   6   7
ENDBRANCH   5   6
ENDBRANCH   4   5
ENDBRANCH   3   4
TORSDOF 4
ENDMDL
MODEL 2
REMARK VINA RESULT:      -5.2      1.567      4.271
REMARK  4 active torsions:
REMARK  status: ('A' for Active; 'I' for Inactive)
REMARK    1  A    between atoms: C_3  and  C_4 
REMARK    2  A    between atoms: C_4  and  C_5 
REMARK    3  A    between atoms: C_5  and  C_6 
REMARK    4  A    between atoms: C_6  and  C_7 
ROOT
HETATM    1  C   LIG     1      18.976  39.139  21.080  1.00  0.00     0.012 C 
HETATM    2  C   LIG     1      17.960  39.022  21.719  1.00  0.00    -0.117 C 
HETATM    3  C   LIG     1      16.722  38.879  22.496  1.00  0.00     0.093 C 
ENDROOT
BRANCH   3   4
HETATM    4  C   LIG     1      16.824  37.740  23.524  1.00  0.00     0.012 C 
BRANCH   4   5
HETATM    5  C   LIG     1      17.970  37.918  24.535  1.00  0.00     0.001 C 
BRANCH   5   6
HETATM    6  C   LIG     1      17.590  37.476  25.959  1.00  0.00    -0.000 C 
BRANCH   6   7
HETATM    7  C   LIG     1      18.504  36.364  26.495  1.00  0.00    -0.005 C 
HETATM    8  C   LIG     1      17.981  34.965  26.171  1.00  0.00     0.005 C 
ENDBRANCH   6   7
ENDBRANCH   5   6
ENDBRANCH   4   5
ENDBRANCH   3   4
TORSDOF 4
ENDMDL
MODEL 3
REMARK VINA RESULT:      -5.2      1.517      2.083
REMARK  4 active torsions:
REMARK  status: ('A' for Active; 'I' for Inactive)
REMARK    1  A    between atoms: C_3  and  C_4 
REMARK    2  A    between atoms: C_4  and  C_5 
REMARK    3  A    between atoms: C_5  and  C_6 
REMARK    4  A    between atoms: C_6  and  C_7 
ROOT
HETATM    1  C   LIG     1      18.068  34.795  26.250  1.00  0.00     0.012 C 
HETATM    2  C   LIG     1      18.237  35.972  26.055  1.00  0.00    -0.117 C 
HETATM    3  C   LIG     1      18.444  37.407  25.817  1.00  0.00     0.093 C 
ENDROOT
BRANCH   3   4
HETATM    4  C   LIG     1      17.257  38.037  25.071  1.00  0.00     0.012 C 
BRANCH   4   5
HETATM    5  C   LIG     1      17.119  37.564  23.613  1.00  0.00     0.001 C 
BRANCH   5   6
HETATM    6  C   LIG     1      17.173  38.719  22.598  1.00  0.00    -0.000 C 
BRANCH   6   7
HETATM    7  C   LIG     1      18.607  39.054  22.161  1.00  0.00    -0.005 C 
HETATM    8  C   LIG     1      18.719  39.315  20.660  1.00  0.00     0.005 C 
ENDBRANCH   6   7
ENDBRANCH   5   6
ENDBRANCH   4   5
ENDBRANCH   3   4
TORSDOF 4
ENDMDL
MODEL 4
REMARK VINA RESULT:      -5.1      1.425      4.371
REMARK  4 active torsions:
REMARK  status: ('A' for Active; 'I' for Inactive)
REMARK    1  A    between atoms: C_3  and  C_4 
REMARK    2  A    between atoms: C_4  and  C_5 
REMARK    3  A    between atoms: C_5  and  C_6 
REMARK    4  A    between atoms: C_6  and  C_7 
ROOT
HETATM    1  C   LIG     1      18.761  36.880  19.761  1.00  0.00     0.012 C 
HETATM    2  C   LIG     1      17.986  36.598  20.640  1.00  0.00    -0.117 C 
HETATM    3  C   LIG     1      17.043  36.253  21.711  1.00  0.00     0.093 C 
ENDROOT
BRANCH   3   4
HETATM    4  C   LIG     1      17.141  37.231  22.893  1.00  0.00     0.012 C 
BRANCH   4   5
HETATM    5  C   LIG     1      17.131  36.543  24.269  1.00  0.00     0.001 C 
BRANCH   5   6
HETATM    6  C   LIG     1      17.900  37.333  25.342  1.00  0.00    -0.000 C 
BRANCH   6   7
HETATM    7  C   LIG     1      18.369  36.445  26.505  1.00  0.00    -0.005 C 
HETATM    8  C   LIG     1      18.162  34.956  26.230  1.00  0.00     0.005 C 
ENDBRANCH   6   7
ENDBRANCH   5   6
ENDBRANCH   4   5
ENDBRANCH   3   4
TORSDOF 4
ENDMDL
MODEL 5
REMARK VINA RESULT:      -4.9      2.059      4.476
REMARK  4 active torsions:
REMARK  status: ('A' for Active; 'I' for Inactive)
REMARK    1  A    between atoms: C_3  and  C_4 
REMARK    2  A    between atoms: C_4  and  C_5 
REMARK    3  A    between atoms: C_5  and  C_6 
REMARK    4  A    between atoms: C_6  and  C_7 
ROOT
HETATM    1  C   LIG     1      19.051  37.067  19.465  1.00  0.00     0.012 C 
HETATM    2  C   LIG     1      18.884  38.063  20.124  1.00  0.00    -0.117 C 
HETATM    3  C   LIG     1      18.679  39.276  20.925  1.00  0.00     0.093 C 
ENDROOT
BRANCH   3   4
HETATM    4  C   LIG     1      18.220  38.944  22.354  1.00  0.00     0.012 C 
BRANCH   4   5
HETATM    5  C   LIG     1      16.985  38.028  22.411  1.00  0.00     0.001 C 
BRANCH   5   6
HETATM    6  C   LIG     1      16.659  37.545  23.835  1.00  0.00    -0.000 C 
BRANCH   6   7
HETATM    7  C   LIG     1      17.650  38.080  24.880  1.00  0.00    -0.005 C 
HETATM    8  C   LIG     1      18.180  36.984  25.804  1.00  0.00     0.005 C 
ENDBRANCH   6   7
ENDBRANCH   5   6
ENDBRANCH   4   5
ENDBRANCH   3   4
TORSDOF 4
ENDMDL
MODEL 6
REMARK VINA RESULT:      -4.6      1.617      4.469
REMARK  4 active torsions:
REMARK  status: ('A' for Active; 'I' for Inactive)
REMARK    1  A    between atoms: C_3  and  C_4 
REMARK    2  A    between atoms: C_4  and  C_5 
REMARK    3  A    between atoms: C_5  and  C_6 
REMARK    4  A    between atoms: C_6  and  C_7 
ROOT
HETATM    1  C   LIG     1      19.202  37.284  19.659  1.00  0.00     0.012 C 
HETATM    2  C   LIG     1      18.259  36.670  20.091  1.00  0.00    -0.117 C 
HETATM    3  C   LIG     1      17.110  35.921  20.616  1.00  0.00     0.093 C 
ENDROOT
BRANCH   3   4
HETATM    4  C   LIG     1      16.941  36.126  22.130  1.00  0.00     0.012 C 
BRANCH   4   5
HETATM    5  C   LIG     1      16.027  37.308  22.498  1.00  0.00     0.001 C 
BRANCH   5   6
HETATM    6  C   LIG     1      16.806  38.551  22.959  1.00  0.00    -0.000 C 
BRANCH   6   7
HETATM    7  C   LIG     1      17.905  38.213  23.979  1.00  0.00    -0.005 C 
HETATM    8  C   LIG     1      17.352  37.988  25.386  1.00  0.00     0.005 C 
ENDBRANCH   6   7
ENDBRANCH   5   6
ENDBRANCH   4   5
ENDBRANCH   3   4
TORSDOF 4
ENDMDL
MODEL 7
REMARK VINA RESULT:      -4.5      2.434      3.747
REMARK  4 active torsions:
REMARK  status: ('A' for Active; 'I' for Inactive)
REMARK    1  A    between atoms: C_3  and  C_4 
REMARK    2  A    between atoms: C_4  and  C_5 
REMARK    3  A    between atoms: C_5  and  C_6 
REMARK    4  A    between atoms: C_6  and  C_7 
ROOT
HETATM    1  C   LIG     1      16.839  35.571  20.991  1.00  0.00     0.012 C 
HETATM    2  C   LIG     1      16.901  36.019  22.109  1.00  0.00    -0.117 C 
HETATM    3  C   LIG     1      16.978  36.564  23.470  1.00  0.00     0.093 C 
ENDROOT
BRANCH   3   4
HETATM    4  C   LIG     1      17.339  38.058  23.466  1.00  0.00     0.012 C 
BRANCH   4   5
HETATM    5  C   LIG     1      17.338  38.692  22.064  1.00  0.00     0.001 C 
BRANCH   5   6
HETATM    6  C   LIG     1      18.726  39.191  21.628  1.00  0.00    -0.000 C 
BRANCH   6   7
HETATM    7  C   LIG     1      18.861  39.300  20.101  1.00  0.00    -0.005 C 
HETATM    8  C   LIG     1      20.183  38.735  19.585  1.00  0.00     0.005 C 
ENDBRANCH   6   7
ENDBRANCH   5   6
ENDBRANCH   4   5
ENDBRANCH   3   4
TORSDOF 4
ENDMDL
MODEL 8
REMARK VINA RESULT:      -4.3      2.501      4.409
REMARK  4 active torsions:
REMARK  status: ('A' for Active; 'I' for Inactive)
REMARK    1  A    between atoms: C_3  and  C_4 
REMARK    2  A    between atoms: C_4  and  C_5 
REMARK    3  A    between atoms: C_5  and  C_6 
REMARK    4  A    between atoms: C_6  and  C_7 
ROOT
HETATM    1  C   LIG     1      19.389  36.724  19.546  1.00  0.00     0.012 C 
HETATM    2  C   LIG     1      19.149  37.888  19.746  1.00  0.00    -0.117 C 
HETATM    3  C   LIG     1      18.856  39.307  19.988  1.00  0.00     0.093 C 
ENDROOT
BRANCH   3   4
HETATM    4  C   LIG     1      18.373  39.551  21.427  1.00  0.00     0.012 C 
BRANCH   4   5
HETATM    5  C   LIG     1      18.260  38.268  22.269  1.00  0.00     0.001 C 
BRANCH   5   6
HETATM    6  C   LIG     1      16.833  37.695  22.304  1.00  0.00    -0.000 C 
BRANCH   6   7
HETATM    7  C   LIG     1      16.777  36.287  22.917  1.00  0.00    -0.005 C 
HETATM    8  C   LIG     1      16.929  35.183  21.871  1.00  0.00     0.005 C 
ENDBRANCH   6   7
ENDBRANCH   5   6
ENDBRANCH   4   5
ENDBRANCH   3   4
TORSDOF 4
ENDMDL
MODEL 9
REMARK VINA RESULT:      -4.3      3.427      5.368
REMARK  4 active torsions:
REMARK  status: ('A' for Active; 'I' for Inactive)
REMARK    1  A    between atoms: C_3  and  C_4 
REMARK    2  A    between atoms: C_4  and  C_5 
REMARK    3  A    between atoms: C_5  and  C_6 
REMARK    4  A    between atoms: C_6  and  C_7 
ROOT
HETATM    1  C   LIG     1      18.854  36.991  19.589  1.00  0.00     0.012 C 
HETATM    2  C   LIG     1      18.127  36.688  20.501  1.00  0.00    -0.117 C 
HETATM    3  C   LIG     1      17.241  36.321  21.614  1.00  0.00     0.093 C 
ENDROOT
BRANCH   3   4
HETATM    4  C   LIG     1      15.847  35.905  21.117  1.00  0.00     0.012 C 
BRANCH   4   5
HETATM    5  C   LIG     1      15.872  34.767  20.082  1.00  0.00     0.001 C 
BRANCH   5   6
HETATM    6  C   LIG     1      15.267  33.456  20.613  1.00  0.00    -0.000 C 
BRANCH   6   7
HETATM    7  C   LIG     1      15.407  32.296  19.616  1.00  0.00    -0.005 C 
HETATM    8  C   LIG     1      14.945  30.961  20.199  1.00  0.00     0.005 C 
ENDBRANCH   6   7
ENDBRANCH   5   6
ENDBRANCH   4   5
ENDBRANCH   3   4
TORSDOF 4
ENDMDL
MODEL 10
REMARK VINA RESULT:      -4.2      1.368      2.649
REMARK  4 active torsions:
REMARK  status: ('A' for Active; 'I' for Inactive)
REMARK    1  A    between atoms: C_3  and  C_4 
REMARK    2  A    between atoms: C_4  and  C_5 
REMARK    3  A    between atoms: C_5  and  C_6 
REMARK    4  A    between atoms: C_6  and  C_7 
ROOT
HETATM    1  C   LIG     1      17.964  37.092  25.600  1.00  0.00     0.012 C 
HETATM    2  C   LIG     1      17.800  37.810  24.645  1.00  0.00    -0.117 C 
HETATM    3  C   LIG     1      17.602  38.685  23.483  1.00  0.00     0.093 C 
ENDROOT
BRANCH   3   4
HETATM    4  C   LIG     1      17.576  37.888  22.168  1.00  0.00     0.012 C 
BRANCH   4   5
HETATM    5  C   LIG     1      16.366  36.945  22.039  1.00  0.00     0.001 C 
BRANCH   5   6
HETATM    6  C   LIG     1      16.767  35.466  21.903  1.00  0.00    -0.000 C 
BRANCH   6   7
HETATM    7  C   LIG     1      15.567  34.554  21.608  1.00  0.00    -0.005 C 
HETATM    8  C   LIG     1      15.597  33.982  20.192  1.00  0.00     0.005 C 
ENDBRANCH   6   7
ENDBRANCH   5   6
ENDBRANCH   4   5
ENDBRANCH   3   4
TORSDOF 4
ENDMDL
MODEL 11
REMARK VINA RESULT:      -4.1      8.771     11.571
REMARK  4 active torsions:
REMARK  status: ('A' for Active; 'I' for Inactive)
REMARK    1  A    between atoms: C_3  and  C_4 
REMARK    2  A    between atoms: C_4  and  C_5 
REMARK    3  A    between atoms: C_5  and  C_6 
REMARK    4  A    between atoms: C_6  and  C_7 
ROOT
HETATM    1  C   LIG     1      15.925  32.096  13.606  1.00  0.00     0.012 C 
HETATM    2  C   LIG     1      15.594  30.993  13.961  1.00  0.00    -0.117 C 
HETATM    3  C   LIG     1      15.190  29.649  14.395  1.00  0.00     0.093 C 
ENDROOT
BRANCH   3   4
HETATM    4  C   LIG     1      13.661  29.501  14.441  1.00  0.00     0.012 C 
BRANCH   4   5
HETATM    5  C   LIG     1      12.963  30.552  15.322  1.00  0.00     0.001 C 
BRANCH   5   6
HETATM    6  C   LIG     1      13.635  30.731  16.693  1.00  0.00    -0.000 C 
BRANCH   6   7
HETATM    7  C   LIG     1      13.823  32.209  17.070  1.00  0.00    -0.005 C 
HETATM    8  C   LIG     1      15.042  32.438  17.963  1.00  0.00     0.005 C 
ENDBRANCH   6   7
ENDBRANCH   5   6
ENDBRANCH   4   5
ENDBRANCH   3   4
TORSDOF 4
ENDMDL
MODEL 12
REMARK VINA RESULT:      -4.1      2.627      4.534
REMARK  4 active torsions:
REMARK  status: ('A' for Active; 'I' for Inactive)
REMARK    1  A    between atoms: C_3  and  C_4 
REMARK    2  A    between atoms: C_4  and  C_5 
REMARK    3  A    between atoms: C_5  and  C_6 
REMARK    4  A    between atoms: C_6  and  C_7 
ROOT
HETATM    1  C   LIG     1      15.618  33.164  20.112  1.00  0.00     0.012 C 
HETATM    2  C   LIG     1      15.429  34.247  20.607  1.00  0.00    -0.117 C 
HETATM    3  C   LIG     1      15.199  35.565  21.211  1.00  0.00     0.093 C 
ENDROOT
BRANCH   3   4
HETATM    4  C   LIG     1      16.407  36.031  22.040  1.00  0.00     0.012 C 
BRANCH   4   5
HETATM    5  C   LIG     1      16.307  37.490  22.517  1.00  0.00     0.001 C 
BRANCH   5   6
HETATM    6  C   LIG     1      17.679  38.134  22.777  1.00  0.00    -0.000 C 
BRANCH   6   7
HETATM    7  C   LIG     1      17.973  39.303  21.824  1.00  0.00    -0.005 C 
HETATM    8  C   LIG     1      19.010  38.948  20.759  1.00  0.00     0.005 C 
ENDBRANCH   6   7
ENDBRANCH   5   6
ENDBRANCH   4   5
ENDBRANCH   3   4
TORSDOF 4
ENDMDL
MODEL 13
REMARK VINA RESULT:      -4.0      1.112      2.776
REMARK  4 active torsions:
REMARK  status: ('A' for Active; 'I' for Inactive)
REMARK    1  A    between atoms: C_3  and  C_4 
REMARK    2  A    between atoms: C_4  and  C_5 
REMARK    3  A    between atoms: C_5  and  C_6 
REMARK    4  A    between atoms: C_6  and  C_7 
ROOT
HETATM    1  C   LIG     1      17.328  34.920  25.906  1.00  0.00     0.012 C 
HETATM    2  C   LIG     1      17.393  34.937  24.702  1.00  0.00    -0.117 C 
HETATM    3  C   LIG     1      17.472  34.955  23.236  1.00  0.00     0.093 C 
ENDROOT
BRANCH   3   4
HETATM    4  C   LIG     1      16.093  35.178  22.594  1.00  0.00     0.012 C 
BRANCH   4   5
HETATM    5  C   LIG     1      15.966  36.519  21.848  1.00  0.00     0.001 C 
BRANCH   5   6
HETATM    6  C   LIG     1      15.756  37.715  22.792  1.00  0.00    -0.000 C 
BRANCH   6   7
HETATM    7  C   LIG     1      16.999  38.612  22.893  1.00  0.00    -0.005 C 
HETATM    8  C   LIG     1      17.647  38.564  24.276  1.00  0.00     0.005 C 
ENDBRANCH   6   7
ENDBRANCH   5   6
ENDBRANCH   4   5
ENDBRANCH   3   4
TORSDOF 4
ENDMDL
MODEL 14
REMARK VINA RESULT:      -4.0     10.556     12.462
REMARK  4 active torsions:
REMARK  status: ('A' for Active; 'I' for Inactive)
REMARK    1  A    between atoms: C_3  and  C_4 
REMARK    2  A    between atoms: C_4  and  C_5 
REMARK    3  A    between atoms: C_5  and  C_6 
REMARK    4  A    between atoms: C_6  and  C_7 
ROOT
HETATM    1  C   LIG     1      23.634  35.991  13.478  1.00  0.00     0.012 C 
HETATM    2  C   LIG     1      22.735  35.223  13.242  1.00  0.00    -0.117 C 
HETATM    3  C   LIG     1      21.639  34.288  12.956  1.00  0.00     0.093 C 
ENDROOT
BRANCH   3   4
HETATM    4  C   LIG     1      21.151  34.411  11.503  1.00  0.00     0.012 C 
BRANCH   4   5
HETATM    5  C   LIG     1      19.620  34.484  11.368  1.00  0.00     0.001 C 
BRANCH   5   6
HETATM    6  C   LIG     1      18.889  33.439  12.228  1.00  0.00    -0.000 C 
BRANCH   6   7
HETATM    7  C   LIG     1      17.920  34.078  13.235  1.00  0.00    -0.005 C 
HETATM    8  C   LIG     1      17.788  33.264  14.521  1.00  0.00     0.005 C 
ENDBRANCH   6   7
ENDBRANCH   5   6
ENDBRANCH   4   5
ENDBRANCH   3   4
TORSDOF 4
ENDMDL
MODEL 15
REMARK VINA RESULT:      -4.0      1.731      4.490
REMARK  4 active torsions:
REMARK  status: ('A' for Active; 'I' for Inactive)
REMARK    1  A    between atoms: C_3  and  C_4 
REMARK    2  A    between atoms: C_4  and  C_5 
REMARK    3  A    between atoms: C_5  and  C_6 
REMARK    4  A    between atoms: C_6  and  C_7 
ROOT
HETATM    1  C   LIG     1      15.262  33.020  20.351  1.00  0.00     0.012 C 
HETATM    2  C   LIG     1      15.453  34.149  20.730  1.00  0.00    -0.117 C 
HETATM    3  C   LIG     1      15.684  35.523  21.194  1.00  0.00     0.093 C 
ENDROOT
BRANCH   3   4
HETATM    4  C   LIG     1      17.177  35.888  21.169  1.00  0.00     0.012 C 
BRANCH   4   5
HETATM    5  C   LIG     1      17.465  37.347  21.567  1.00  0.00     0.001 C 
BRANCH   5   6
HETATM    6  C   LIG     1      16.918  37.710  22.958  1.00  0.00    -0.000 C 
BRANCH   6   7
HETATM    7  C   LIG     1      17.993  38.313  23.875  1.00  0.00    -0.005 C 
HETATM    8  C   LIG     1      17.823  37.895  25.335  1.00  0.00     0.005 C 
ENDBRANCH   6   7
ENDBRANCH   5   6
ENDBRANCH   4   5
ENDBRANCH   3   4
TORSDOF 4
ENDMDL
MODEL 16
REMARK VINA RESULT:      -4.0      1.312      4.161
REMARK  4 active torsions:
REMARK  status: ('A' for Active; 'I' for Inactive)
REMARK    1  A    between atoms: C_3  and  C_4 
REMARK    2  A    between atoms: C_4  and  C_5 
REMARK    3  A    between atoms: C_5  and  C_6 
REMARK    4  A    between atoms: C_6  and  C_7 
ROOT
HETATM    1  C   LIG     1      16.085  38.843  22.592  1.00  0.00     0.012 C 
HETATM    2  C   LIG     1      16.857  38.030  22.149  1.00  0.00    -0.117 C 
HETATM    3  C   LIG     1      17.798  37.040  21.611  1.00  0.00     0.093 C 
ENDROOT
BRANCH   3   4
HETATM    4  C   LIG     1      17.185  35.631  21.578  1.00  0.00     0.012 C 
BRANCH   4   5
HETATM    5  C   LIG     1      16.417  35.259  22.859  1.00  0.00     0.001 C 
BRANCH   5   6
HETATM    6  C   LIG     1      17.342  34.973  24.054  1.00  0.00    -0.000 C 
BRANCH   6   7
HETATM    7  C   LIG     1      17.170  35.992  25.190  1.00  0.00    -0.005 C 
HETATM    8  C   LIG     1      18.436  36.156  26.029  1.00  0.00     0.005 C 
ENDBRANCH   6   7
ENDBRANCH   5   6
ENDBRANCH   4   5
ENDBRANCH   3   4
TORSDOF 4
ENDMDL
MODEL 17
REMARK VINA RESULT:      -3.8      7.876     10.616
REMARK  4 active torsions:
REMARK  status: ('A' for Active; 'I' for Inactive)
REMARK    1  A    between atoms: C_3  and  C_4 
REMARK    2  A    between atoms: C_4  and  C_5 
REMARK    3  A    between atoms: C_5  and  C_6 
REMARK    4  A    between atoms: C_6  and  C_7 
ROOT
HETATM    1  C   LIG     1      13.158  29.589  14.645  1.00  0.00     0.012 C 
HETATM    2  C   LIG     1      14.265  30.040  14.486  1.00  0.00    -0.117 C 
HETATM    3  C   LIG     1      15.613  30.589  14.292  1.00  0.00     0.093 C 
ENDROOT
BRANCH   3   4
HETATM    4  C   LIG     1      15.817  31.889  15.086  1.00  0.00     0.012 C 
BRANCH   4   5
HETATM    5  C   LIG     1      14.686  32.191  16.085  1.00  0.00     0.001 C 
BRANCH   5   6
HETATM    6  C   LIG     1      15.200  32.697  17.443  1.00  0.00    -0.000 C 
BRANCH   6   7
HETATM    7  C   LIG     1      14.663  31.873  18.622  1.00  0.00    -0.005 C 
HETATM    8  C   LIG     1      15.469  32.083  19.903  1.00  0.00     0.005 C 
ENDBRANCH   6   7
ENDBRANCH   5   6
ENDBRANCH   4   5
ENDBRANCH   3   4
TORSDOF 4
ENDMDL
MODEL 18
REMARK VINA RESULT:      -3.8     10.529     11.835
REMARK  4 active torsions:
REMARK  status: ('A' for Active; 'I' for Inactive)
REMARK    1  A    between atoms: C_3  and  C_4 
REMARK    2  A    between atoms: C_4  and  C_5 
REMARK    3  A    between atoms: C_5  and  C_6 
REMARK    4  A    between atoms: C_6  and  C_7 
ROOT
HETATM    1  C   LIG     1      21.365  34.221  12.717  1.00  0.00     0.012 C 
HETATM    2  C   LIG     1      20.202  33.903  12.681  1.00  0.00    -0.117 C 
HETATM    3  C   LIG     1      18.787  33.515  12.638  1.00  0.00     0.093 C 
ENDROOT
BRANCH   3   4
HETATM    4  C   LIG     1      18.016  34.033  13.863  1.00  0.00     0.012 C 
BRANCH   4   5
HETATM    5  C   LIG     1      17.317  32.924  14.670  1.00  0.00     0.001 C 
BRANCH   5   6
HETATM    6  C   LIG     1      16.155  32.267  13.907  1.00  0.00    -0.000 C 
BRANCH   6   7
HETATM    7  C   LIG     1      15.441  31.187  14.735  1.00  0.00    -0.005 C 
HETATM    8  C   LIG     1      15.130  29.932  13.922  1.00  0.00     0.005 C 
ENDBRANCH   6   7
ENDBRANCH   5   6
ENDBRANCH   4   5
ENDBRANCH   3   4
TORSDOF 4
ENDMDL
MODEL 19
REMARK VINA RESULT:      -3.6     10.314     11.606
REMARK  4 active torsions:
REMARK  status: ('A' for Active; 'I' for Inactive)
REMARK    1  A    between atoms: C_3  and  C_4 
REMARK    2  A    between atoms: C_4  and  C_5 
REMARK    3  A    between atoms: C_5  and  C_6 
REMARK    4  A    between atoms: C_6  and  C_7 
ROOT
HETATM    1  C   LIG     1      13.004  29.954  14.910  1.00  0.00     0.012 C 
HETATM    2  C   LIG     1      14.165  30.156  14.656  1.00  0.00    -0.117 C 
HETATM    3  C   LIG     1      15.580  30.400  14.345  1.00  0.00     0.093 C 
ENDROOT
BRANCH   3   4
HETATM    4  C   LIG     1      15.826  31.857  13.921  1.00  0.00     0.012 C 
BRANCH   4   5
HETATM    5  C   LIG     1      16.440  32.730  15.030  1.00  0.00     0.001 C 
BRANCH   5   6
HETATM    6  C   LIG     1      17.896  33.134  14.740  1.00  0.00    -0.000 C 
BRANCH   6   7
HETATM    7  C   LIG     1      18.057  33.820  13.374  1.00  0.00    -0.005 C 
HETATM    8  C   LIG     1      19.511  33.868  12.908  1.00  0.00     0.005 C 
ENDBRANCH   6   7
ENDBRANCH   5   6
ENDBRANCH   4   5
ENDBRANCH   3   4
TORSDOF 4
ENDMDL
MODEL 20
REMARK VINA RESULT:      -3.3     12.261     13.376
REMARK  4 active torsions:
REMARK  status: ('A' for Active; 'I' for Inactive)
REMARK    1  A    between atoms: C_3  and  C_4 
REMARK    2  A    between atoms: C_4  and  C_5 
REMARK    3  A    between atoms: C_5  and  C_6 
REMARK    4  A    between atoms: C_6  and  C_7 
ROOT
HETATM    1  C   LIG     1      23.610  35.934  13.754  1.00  0.00     0.012 C 
HETATM    2  C   LIG     1      22.796  35.401  13.042  1.00  0.00    -0.117 C 
HETATM    3  C   LIG     1      21.806  34.752  12.173  1.00  0.00     0.093 C 
ENDROOT
BRANCH   3   4
HETATM    4  C   LIG     1      20.894  33.799  12.963  1.00  0.00     0.012 C 
BRANCH   4   5
HETATM    5  C   LIG     1      19.521  33.570  12.307  1.00  0.00     0.001 C 
BRANCH   5   6
HETATM    6  C   LIG     1      19.537  33.787  10.785  1.00  0.00    -0.000 C 
BRANCH   6   7
HETATM    7  C   LIG     1      19.742  32.479  10.005  1.00  0.00    -0.005 C 
HETATM    8  C   LIG     1      20.929  31.667  10.521  1.00  0.00     0.005 C 
ENDBRANCH   6   7
ENDBRANCH   5   6
ENDBRANCH   4   5
ENDBRANCH   3   4
TORSDOF 4
ENDMDL
