MODEL 1
REMARK VINA RESULT:      -5.1      0.000      0.000
REMARK  5 active torsions:
REMARK  status: ('A' for Active; 'I' for Inactive)
REMARK    1  A    between atoms: C_2  and  C_3 
REMARK    2  A    between atoms: C_3  and  C_4 
REMARK    3  A    between atoms: C_4  and  C_5 
REMARK    4  A    between atoms: C_5  and  C_6 
REMARK    5  A    between atoms: C_6  and  C_7 
ROOT
HETATM    1  C   LIG     1      17.348  37.754  25.277  1.00  0.00     0.000 C 
ENDROOT
BRANCH   1   2
HETATM    2  C   LIG     1      18.585  37.110  25.927  1.00  0.00    -0.000 C 
BRANCH   2   3
HETATM    3  C   LIG     1      18.254  35.791  26.642  1.00  0.00    -0.005 C 
HETATM    4  C   LIG     1      17.420  34.846  25.778  1.00  0.00     0.005 C 
ENDBRANCH   2   3
ENDBRANCH   1   2
BRANCH   1   5
HETATM    5  C   LIG     1      17.644  38.327  23.881  1.00  0.00     0.001 C 
BRANCH   5   6
HETATM    6  C   LIG     1      16.574  37.946  22.848  1.00  0.00     0.011 C 
BRANCH   6   7
HETATM    7  C   LIG     1      17.177  37.120  21.714  1.00  0.00     0.085 C 
HETATM    8 BR   LIG     1      16.860  35.233  22.022  1.00  0.00    -0.097 Br
ENDBRANCH   6   7
ENDBRANCH   5   6
ENDBRANCH   1   5
TORSDOF 5
ENDMDL
MODEL 2
REMARK VINA RESULT:      -5.0      1.822      1.828
REMARK  5 active torsions:
REMARK  status: ('A' for Active; 'I' for Inactive)
REMARK    1  A    between atoms: C_2  and  C_3 
REMARK    2  A    between atoms: C_3  and  C_4 
REMARK    3  A    between atoms: C_4  and  C_5 
REMARK    4  A    between atoms: C_5  and  C_6 
REMARK    5  A    between atoms: C_6  and  C_7 
ROOT
HETATM    1  C   LIG     1      17.250  37.908  25.284  1.00  0.00     0.000 C 
ENDROOT
BRANCH   1   2
HETATM    2  C   LIG     1      18.565  37.237  25.716  1.00  0.00    -0.000 C 
BRANCH   2   3
HETATM    3  C   LIG     1      18.346  36.127  26.755  1.00  0.00    -0.005 C 
HETATM    4  C   LIG     1      17.780  34.847  26.140  1.00  0.00     0.005 C 
ENDBRANCH   2   3
ENDBRANCH   1   2
BRANCH   1   5
HETATM    5  C   LIG     1      16.900  37.630  23.812  1.00  0.00     0.001 C 
BRANCH   5   6
HETATM    6  C   LIG     1      17.482  38.682  22.858  1.00  0.00     0.011 C 
BRANCH   6   7
HETATM    7  C   LIG     1      17.796  38.071  21.494  1.00  0.00     0.085 C 
HETATM    8 BR   LIG     1      19.121  39.143  20.572  1.00  0.00    -0.097 Br
ENDBRANCH   6   7
ENDBRANCH   5   6
ENDBRANCH   1   5
TORSDOF 5
ENDMDL
MODEL 3
REMARK VINA RESULT:      -4.9      2.646      4.802
REMARK  5 active torsions:
REMARK  status: ('A' for Active; 'I' for Inactive)
REMARK    1  A    between atoms: C_2  and  C_3 
REMARK    2  A    between atoms: C_3  and  C_4 
REMARK    3  A    between atoms: C_4  and  C_5 
REMARK    4  A    between atoms: C_5  and  C_6 
REMARK    5  A    between atoms: C_6  and  C_7 
ROOT
HETATM    1  C   LIG     1      18.535  38.885  22.097  1.00  0.00     0.000 C 
ENDROOT
BRANCH   1   2
HETATM    2  C   LIG     1      18.726  39.480  20.690  1.00  0.00    -0.000 C 
BRANCH   2   3
HETATM    3  C   LIG     1      19.703  38.662  19.832  1.00  0.00    -0.005 C 
HETATM    4  C   LIG     1      19.207  37.241  19.568  1.00  0.00     0.005 C 
ENDBRANCH   2   3
ENDBRANCH   1   2
BRANCH   1   5
HETATM    5  C   LIG     1      17.055  38.672  22.453  1.00  0.00     0.001 C 
BRANCH   5   6
HETATM    6  C   LIG     1      16.862  37.663  23.595  1.00  0.00     0.011 C 
BRANCH   6   7
HETATM    7  C   LIG     1      17.403  38.216  24.911  1.00  0.00     0.085 C 
HETATM    8 BR   LIG     1      18.224  36.796  25.943  1.00  0.00    -0.097 Br
ENDBRANCH   6   7
ENDBRANCH   5   6
ENDBRANCH   1   5
TORSDOF 5
ENDMDL
MODEL 4
REMARK VINA RESULT:      -4.8      2.077      4.447
REMARK  5 active torsions:
REMARK  status: ('A' for Active; 'I' for Inactive)
REMARK    1  A    between atoms: C_2  and  C_3 
REMARK    2  A    between atoms: C_3  and  C_4 
REMARK    3  A    between atoms: C_4  and  C_5 
REMARK    4  A    between atoms: C_5  and  C_6 
REMARK    5  A    between atoms: C_6  and  C_7 
ROOT
HETATM    1  C   LIG     1      16.542  38.039  22.853  1.00  0.00     0.000 C 
ENDROOT
BRANCH   1   2
HETATM    2  C   LIG     1      17.668  37.911  21.812  1.00  0.00    -0.000 C 
BRANCH   2   3
HETATM    3  C   LIG     1      18.380  39.247  21.548  1.00  0.00    -0.005 C 
HETATM    4  C   LIG     1      19.309  39.191  20.336  1.00  0.00     0.005 C 
ENDBRANCH   2   3
ENDBRANCH   1   2
BRANCH   1   5
HETATM    5  C   LIG     1      16.818  37.219  24.125  1.00  0.00     0.001 C 
BRANCH   5   6
HETATM    6  C   LIG     1      17.971  37.795  24.960  1.00  0.00     0.011 C 
BRANCH   6   7
HETATM    7  C   LIG     1      18.385  36.826  26.064  1.00  0.00     0.085 C 
HETATM    8 BR   LIG     1      17.630  35.073  25.731  1.00  0.00    -0.097 Br
ENDBRANCH   6   7
ENDBRANCH   5   6
ENDBRANCH   1   5
TORSDOF 5
ENDMDL
MODEL 5
REMARK VINA RESULT:      -4.6      1.978      3.942
REMARK  5 active torsions:
REMARK  status: ('A' for Active; 'I' for Inactive)
REMARK    1  A    between atoms: C_2  and  C_3 
REMARK    2  A    between atoms: C_3  and  C_4 
REMARK    3  A    between atoms: C_4  and  C_5 
REMARK    4  A    between atoms: C_5  and  C_6 
REMARK    5  A    between atoms: C_6  and  C_7 
ROOT
HETATM    1  C   LIG     1      17.276  37.567  23.020  1.00  0.00     0.000 C 
ENDROOT
BRANCH   1   2
HETATM    2  C   LIG     1      16.541  36.777  21.923  1.00  0.00    -0.000 C 
BRANCH   2   3
HETATM    3  C   LIG     1      16.889  35.280  21.943  1.00  0.00    -0.005 C 
HETATM    4  C   LIG     1      16.055  34.468  20.953  1.00  0.00     0.005 C 
ENDBRANCH   2   3
ENDBRANCH   1   2
BRANCH   1   5
HETATM    5  C   LIG     1      16.785  37.212  24.433  1.00  0.00     0.001 C 
BRANCH   5   6
HETATM    6  C   LIG     1      17.662  37.826  25.534  1.00  0.00     0.011 C 
BRANCH   6   7
HETATM    7  C   LIG     1      18.397  36.742  26.318  1.00  0.00     0.085 C 
HETATM    8 BR   LIG     1      17.642  35.002  25.918  1.00  0.00    -0.097 Br
ENDBRANCH   6   7
ENDBRANCH   5   6
ENDBRANCH   1   5
TORSDOF 5
ENDMDL
MODEL 6
REMARK VINA RESULT:      -4.5      1.844      2.494
REMARK  5 active torsions:
REMARK  status: ('A' for Active; 'I' for Inactive)
REMARK    1  A    between atoms: C_2  and  C_3 
REMARK    2  A    between atoms: C_3  and  C_4 
REMARK    3  A    between atoms: C_4  and  C_5 
REMARK    4  A    between atoms: C_5  and  C_6 
REMARK    5  A    between atoms: C_6  and  C_7 
ROOT
HETATM    1  C   LIG     1      17.737  38.586  23.308  1.00  0.00     0.000 C 
ENDROOT
BRANCH   1   2
HETATM    2  C   LIG     1      17.188  37.456  24.195  1.00  0.00    -0.000 C 
BRANCH   2   3
HETATM    3  C   LIG     1      17.530  37.653  25.680  1.00  0.00    -0.005 C 
HETATM    4  C   LIG     1      18.366  36.508  26.250  1.00  0.00     0.005 C 
ENDBRANCH   2   3
ENDBRANCH   1   2
BRANCH   1   5
HETATM    5  C   LIG     1      17.475  38.344  21.812  1.00  0.00     0.001 C 
BRANCH   5   6
HETATM    6  C   LIG     1      17.413  36.851  21.459  1.00  0.00     0.011 C 
BRANCH   6   7
HETATM    7  C   LIG     1      18.130  36.570  20.140  1.00  0.00     0.085 C 
HETATM    8 BR   LIG     1      19.273  38.063  19.671  1.00  0.00    -0.097 Br
ENDBRANCH   6   7
ENDBRANCH   5   6
ENDBRANCH   1   5
TORSDOF 5
ENDMDL
MODEL 7
REMARK VINA RESULT:      -4.3      2.207      2.997
REMARK  5 active torsions:
REMARK  status: ('A' for Active; 'I' for Inactive)
REMARK    1  A    between atoms: C_2  and  C_3 
REMARK    2  A    between atoms: C_3  and  C_4 
REMARK    3  A    between atoms: C_4  and  C_5 
REMARK    4  A    between atoms: C_5  and  C_6 
REMARK    5  A    between atoms: C_6  and  C_7 
ROOT
HETATM    1  C   LIG     1      17.110  36.842  22.864  1.00  0.00     0.000 C 
ENDROOT
BRANCH   1   2
HETATM    2  C   LIG     1      16.727  37.281  24.288  1.00  0.00    -0.000 C 
BRANCH   2   3
HETATM    3  C   LIG     1      17.943  37.732  25.112  1.00  0.00    -0.005 C 
HETATM    4  C   LIG     1      18.415  36.663  26.097  1.00  0.00     0.005 C 
ENDBRANCH   2   3
ENDBRANCH   1   2
BRANCH   1   5
HETATM    5  C   LIG     1      16.864  35.344  22.621  1.00  0.00     0.001 C 
BRANCH   5   6
HETATM    6  C   LIG     1      16.408  35.045  21.185  1.00  0.00     0.011 C 
BRANCH   6   7
HETATM    7  C   LIG     1      15.160  34.166  21.179  1.00  0.00     0.085 C 
HETATM    8 BR   LIG     1      15.373  32.715  19.912  1.00  0.00    -0.097 Br
ENDBRANCH   6   7
ENDBRANCH   5   6
ENDBRANCH   1   5
TORSDOF 5
ENDMDL
MODEL 8
REMARK VINA RESULT:      -4.3      2.568      5.082
REMARK  5 active torsions:
REMARK  status: ('A' for Active; 'I' for Inactive)
REMARK    1  A    between atoms: C_2  and  C_3 
REMARK    2  A    between atoms: C_3  and  C_4 
REMARK    3  A    between atoms: C_4  and  C_5 
REMARK    4  A    between atoms: C_5  and  C_6 
REMARK    5  A    between atoms: C_6  and  C_7 
ROOT
HETATM    1  C   LIG     1      17.036  36.356  20.957  1.00  0.00     0.000 C 
ENDROOT
BRANCH   1   2
HETATM    2  C   LIG     1      18.306  36.637  20.136  1.00  0.00    -0.000 C 
BRANCH   2   3
HETATM    3  C   LIG     1      18.789  38.089  20.278  1.00  0.00    -0.005 C 
HETATM    4  C   LIG     1      19.220  38.700  18.945  1.00  0.00     0.005 C 
ENDBRANCH   2   3
ENDBRANCH   1   2
BRANCH   1   5
HETATM    5  C   LIG     1      17.162  35.094  21.827  1.00  0.00     0.001 C 
BRANCH   5   6
HETATM    6  C   LIG     1      17.004  35.391  23.325  1.00  0.00     0.011 C 
BRANCH   6   7
HETATM    7  C   LIG     1      16.881  36.892  23.576  1.00  0.00     0.085 C 
HETATM    8 BR   LIG     1      17.684  37.352  25.278  1.00  0.00    -0.097 Br
ENDBRANCH   6   7
ENDBRANCH   5   6
ENDBRANCH   1   5
TORSDOF 5
ENDMDL
MODEL 9
REMARK VINA RESULT:      -4.3      3.070      3.782
REMARK  5 active torsions:
REMARK  status: ('A' for Active; 'I' for Inactive)
REMARK    1  A    between atoms: C_2  and  C_3 
REMARK    2  A    between atoms: C_3  and  C_4 
REMARK    3  A    between atoms: C_4  and  C_5 
REMARK    4  A    between atoms: C_5  and  C_6 
REMARK    5  A    between atoms: C_6  and  C_7 
ROOT
HETATM    1  C   LIG     1      16.621  37.485  22.408  1.00  0.00     0.000 C 
ENDROOT
BRANCH   1   2
HETATM    2  C   LIG     1      16.867  36.033  22.852  1.00  0.00    -0.000 C 
BRANCH   2   3
HETATM    3  C   LIG     1      16.746  35.034  21.691  1.00  0.00    -0.005 C 
HETATM    4  C   LIG     1      15.296  34.679  21.367  1.00  0.00     0.005 C 
ENDBRANCH   2   3
ENDBRANCH   1   2
BRANCH   1   5
HETATM    5  C   LIG     1      17.669  38.461  22.970  1.00  0.00     0.001 C 
BRANCH   5   6
HETATM    6  C   LIG     1      18.459  39.178  21.866  1.00  0.00     0.011 C 
BRANCH   6   7
HETATM    7  C   LIG     1      18.544  38.319  20.606  1.00  0.00     0.085 C 
HETATM    8 BR   LIG     1      20.116  38.796  19.578  1.00  0.00    -0.097 Br
ENDBRANCH   6   7
ENDBRANCH   5   6
ENDBRANCH   1   5
TORSDOF 5
ENDMDL
MODEL 10
REMARK VINA RESULT:      -4.3      1.127      2.355
REMARK  5 active torsions:
REMARK  status: ('A' for Active; 'I' for Inactive)
REMARK    1  A    between atoms: C_2  and  C_3 
REMARK    2  A    between atoms: C_3  and  C_4 
REMARK    3  A    between atoms: C_4  and  C_5 
REMARK    4  A    between atoms: C_5  and  C_6 
REMARK    5  A    between atoms: C_6  and  C_7 
ROOT
HETATM    1  C   LIG     1      17.287  38.760  22.504  1.00  0.00     0.000 C 
ENDROOT
BRANCH   1   2
HETATM    2  C   LIG     1      18.085  38.473  23.788  1.00  0.00    -0.000 C 
BRANCH   2   3
HETATM    3  C   LIG     1      17.211  37.876  24.902  1.00  0.00    -0.005 C 
HETATM    4  C   LIG     1      17.981  36.907  25.799  1.00  0.00     0.005 C 
ENDBRANCH   2   3
ENDBRANCH   1   2
BRANCH   1   5
HETATM    5  C   LIG     1      18.097  38.476  21.229  1.00  0.00     0.001 C 
BRANCH   5   6
HETATM    6  C   LIG     1      18.110  36.986  20.858  1.00  0.00     0.011 C 
BRANCH   6   7
HETATM    7  C   LIG     1      16.778  36.323  21.203  1.00  0.00     0.085 C 
HETATM    8 BR   LIG     1      17.041  34.966  22.561  1.00  0.00    -0.097 Br
ENDBRANCH   6   7
ENDBRANCH   5   6
ENDBRANCH   1   5
TORSDOF 5
ENDMDL
MODEL 11
REMARK VINA RESULT:      -4.1      1.986      2.712
REMARK  5 active torsions:
REMARK  status: ('A' for Active; 'I' for Inactive)
REMARK    1  A    between atoms: C_2  and  C_3 
REMARK    2  A    between atoms: C_3  and  C_4 
REMARK    3  A    between atoms: C_4  and  C_5 
REMARK    4  A    between atoms: C_5  and  C_6 
REMARK    5  A    between atoms: C_6  and  C_7 
ROOT
HETATM    1  C   LIG     1      17.421  34.978  23.156  1.00  0.00     0.000 C 
ENDROOT
BRANCH   1   2
HETATM    2  C   LIG     1      17.116  34.951  24.664  1.00  0.00    -0.000 C 
BRANCH   2   3
HETATM    3  C   LIG     1      17.581  36.227  25.382  1.00  0.00    -0.005 C 
HETATM    4  C   LIG     1      18.359  35.932  26.664  1.00  0.00     0.005 C 
ENDBRANCH   2   3
ENDBRANCH   1   2
BRANCH   1   5
HETATM    5  C   LIG     1      16.148  35.053  22.297  1.00  0.00     0.001 C 
BRANCH   5   6
HETATM    6  C   LIG     1      15.924  36.447  21.694  1.00  0.00     0.011 C 
BRANCH   6   7
HETATM    7  C   LIG     1      17.236  37.224  21.607  1.00  0.00     0.085 C 
HETATM    8 BR   LIG     1      17.102  38.873  22.616  1.00  0.00    -0.097 Br
ENDBRANCH   6   7
ENDBRANCH   5   6
ENDBRANCH   1   5
TORSDOF 5
ENDMDL
MODEL 12
REMARK VINA RESULT:      -4.1      2.094      4.200
REMARK  5 active torsions:
REMARK  status: ('A' for Active; 'I' for Inactive)
REMARK    1  A    between atoms: C_2  and  C_3 
REMARK    2  A    between atoms: C_3  and  C_4 
REMARK    3  A    between atoms: C_4  and  C_5 
REMARK    4  A    between atoms: C_5  and  C_6 
REMARK    5  A    between atoms: C_6  and  C_7 
ROOT
HETATM    1  C   LIG     1      16.884  34.878  24.878  1.00  0.00     0.000 C 
ENDROOT
BRANCH   1   2
HETATM    2  C   LIG     1      17.379  34.906  23.421  1.00  0.00    -0.000 C 
BRANCH   2   3
HETATM    3  C   LIG     1      16.466  35.735  22.506  1.00  0.00    -0.005 C 
HETATM    4  C   LIG     1      17.224  36.387  21.350  1.00  0.00     0.005 C 
ENDBRANCH   2   3
ENDBRANCH   1   2
BRANCH   1   5
HETATM    5  C   LIG     1      18.038  34.799  25.892  1.00  0.00     0.001 C 
BRANCH   5   6
HETATM    6  C   LIG     1      18.168  36.075  26.737  1.00  0.00     0.011 C 
BRANCH   6   7
HETATM    7  C   LIG     1      18.754  37.220  25.914  1.00  0.00     0.085 C 
HETATM    8 BR   LIG     1      17.329  38.305  25.174  1.00  0.00    -0.097 Br
ENDBRANCH   6   7
ENDBRANCH   5   6
ENDBRANCH   1   5
TORSDOF 5
ENDMDL
MODEL 13
REMARK VINA RESULT:      -4.1      8.583     10.188
REMARK  5 active torsions:
REMARK  status: ('A' for Active; 'I' for Inactive)
REMARK    1  A    between atoms: C_2  and  C_3 
REMARK    2  A    between atoms: C_3  and  C_4 
REMARK    3  A    between atoms: C_4  and  C_5 
REMARK    4  A    between atoms: C_5  and  C_6 
REMARK    5  A    between atoms: C_6  and  C_7 
ROOT
HETATM    1  C   LIG     1      13.633  32.090  17.211  1.00  0.00     0.000 C 
ENDROOT
BRANCH   1   2
HETATM    2  C   LIG     1      15.089  32.391  17.609  1.00  0.00    -0.000 C 
BRANCH   2   3
HETATM    3  C   LIG     1      15.258  32.573  19.125  1.00  0.00    -0.005 C 
HETATM    4  C   LIG     1      14.848  31.332  19.918  1.00  0.00     0.005 C 
ENDBRANCH   2   3
ENDBRANCH   1   2
BRANCH   1   5
HETATM    5  C   LIG     1      13.486  30.744  16.482  1.00  0.00     0.001 C 
BRANCH   5   6
HETATM    6  C   LIG     1      14.367  30.652  15.228  1.00  0.00     0.011 C 
BRANCH   6   7
HETATM    7  C   LIG     1      13.844  29.587  14.267  1.00  0.00     0.085 C 
HETATM    8 BR   LIG     1      15.275  28.379  13.767  1.00  0.00    -0.097 Br
ENDBRANCH   6   7
ENDBRANCH   5   6
ENDBRANCH   1   5
TORSDOF 5
ENDMDL
MODEL 14
REMARK VINA RESULT:      -4.0      9.595     11.341
REMARK  5 active torsions:
REMARK  status: ('A' for Active; 'I' for Inactive)
REMARK    1  A    between atoms: C_2  and  C_3 
REMARK    2  A    between atoms: C_3  and  C_4 
REMARK    3  A    between atoms: C_4  and  C_5 
REMARK    4  A    between atoms: C_5  and  C_6 
REMARK    5  A    between atoms: C_6  and  C_7 
ROOT
HETATM    1  C   LIG     1      14.996  30.303  14.896  1.00  0.00     0.000 C 
ENDROOT
BRANCH   1   2
HETATM    2  C   LIG     1      15.389  30.841  13.509  1.00  0.00    -0.000 C 
BRANCH   2   3
HETATM    3  C   LIG     1      16.123  32.189  13.587  1.00  0.00    -0.005 C 
HETATM    4  C   LIG     1      16.776  32.426  14.948  1.00  0.00     0.005 C 
ENDBRANCH   2   3
ENDBRANCH   1   2
BRANCH   1   5
HETATM    5  C   LIG     1      13.481  30.373  15.150  1.00  0.00     0.001 C 
BRANCH   5   6
HETATM    6  C   LIG     1      13.143  30.795  16.587  1.00  0.00     0.011 C 
BRANCH   6   7
HETATM    7  C   LIG     1      13.723  32.171  16.906  1.00  0.00     0.085 C 
HETATM    8 BR   LIG     1      14.820  32.079  18.500  1.00  0.00    -0.097 Br
ENDBRANCH   6   7
ENDBRANCH   5   6
ENDBRANCH   1   5
TORSDOF 5
ENDMDL
MODEL 15
REMARK VINA RESULT:      -4.0      3.051      4.803
REMARK  5 active torsions:
REMARK  status: ('A' for Active; 'I' for Inactive)
REMARK    1  A    between atoms: C_2  and  C_3 
REMARK    2  A    between atoms: C_3  and  C_4 
REMARK    3  A    between atoms: C_4  and  C_5 
REMARK    4  A    between atoms: C_5  and  C_6 
REMARK    5  A    between atoms: C_6  and  C_7 
ROOT
HETATM    1  C   LIG     1      17.645  38.817  21.437  1.00  0.00     0.000 C 
ENDROOT
BRANCH   1   2
HETATM    2  C   LIG     1      19.090  39.303  21.228  1.00  0.00    -0.000 C 
BRANCH   2   3
HETATM    3  C   LIG     1      19.757  38.655  20.006  1.00  0.00    -0.005 C 
HETATM    4  C   LIG     1      19.015  38.951  18.703  1.00  0.00     0.005 C 
ENDBRANCH   2   3
ENDBRANCH   1   2
BRANCH   1   5
HETATM    5  C   LIG     1      17.577  37.436  22.111  1.00  0.00     0.001 C 
BRANCH   5   6
HETATM    6  C   LIG     1      17.183  36.320  21.132  1.00  0.00     0.011 C 
BRANCH   6   7
HETATM    7  C   LIG     1      16.802  35.045  21.880  1.00  0.00     0.085 C 
HETATM    8 BR   LIG     1      17.058  35.287  23.785  1.00  0.00    -0.097 Br
ENDBRANCH   6   7
ENDBRANCH   5   6
ENDBRANCH   1   5
TORSDOF 5
ENDMDL
MODEL 16
REMARK VINA RESULT:      -4.0      8.741     10.923
REMARK  5 active torsions:
REMARK  status: ('A' for Active; 'I' for Inactive)
REMARK    1  A    between atoms: C_2  and  C_3 
REMARK    2  A    between atoms: C_3  and  C_4 
REMARK    3  A    between atoms: C_4  and  C_5 
REMARK    4  A    between atoms: C_5  and  C_6 
REMARK    5  A    between atoms: C_6  and  C_7 
ROOT
HETATM    1  C   LIG     1      13.235  30.771  15.990  1.00  0.00     0.000 C 
ENDROOT
BRANCH   1   2
HETATM    2  C   LIG     1      14.506  30.580  15.144  1.00  0.00    -0.000 C 
BRANCH   2   3
HETATM    3  C   LIG     1      14.290  29.616  13.967  1.00  0.00    -0.005 C 
HETATM    4  C   LIG     1      15.362  28.530  13.890  1.00  0.00     0.005 C 
ENDBRANCH   2   3
ENDBRANCH   1   2
BRANCH   1   5
HETATM    5  C   LIG     1      13.427  31.793  17.123  1.00  0.00     0.001 C 
BRANCH   5   6
HETATM    6  C   LIG     1      14.828  32.421  17.119  1.00  0.00     0.011 C 
BRANCH   6   7
HETATM    7  C   LIG     1      15.216  32.905  18.514  1.00  0.00     0.085 C 
HETATM    8 BR   LIG     1      14.876  31.515  19.821  1.00  0.00    -0.097 Br
ENDBRANCH   6   7
ENDBRANCH   5   6
ENDBRANCH   1   5
TORSDOF 5
ENDMDL
MODEL 17
REMARK VINA RESULT:      -4.0     10.499     11.684
REMARK  5 active torsions:
REMARK  status: ('A' for Active; 'I' for Inactive)
REMARK    1  A    between atoms: C_2  and  C_3 
REMARK    2  A    between atoms: C_3  and  C_4 
REMARK    3  A    between atoms: C_4  and  C_5 
REMARK    4  A    between atoms: C_5  and  C_6 
REMARK    5  A    between atoms: C_6  and  C_7 
ROOT
HETATM    1  C   LIG     1      15.285  30.566  13.420  1.00  0.00     0.000 C 
ENDROOT
BRANCH   1   2
HETATM    2  C   LIG     1      14.872  30.143  14.841  1.00  0.00    -0.000 C 
BRANCH   2   3
HETATM    3  C   LIG     1      13.349  30.166  15.042  1.00  0.00    -0.005 C 
HETATM    4  C   LIG     1      12.934  30.897  16.318  1.00  0.00     0.005 C 
ENDBRANCH   2   3
ENDBRANCH   1   2
BRANCH   1   5
HETATM    5  C   LIG     1      16.007  31.924  13.394  1.00  0.00     0.001 C 
BRANCH   5   6
HETATM    6  C   LIG     1      16.306  32.460  14.801  1.00  0.00     0.011 C 
BRANCH   6   7
HETATM    7  C   LIG     1      17.694  33.093  14.863  1.00  0.00     0.085 C 
HETATM    8 BR   LIG     1      18.178  33.809  13.128  1.00  0.00    -0.097 Br
ENDBRANCH   6   7
ENDBRANCH   5   6
ENDBRANCH   1   5
TORSDOF 5
ENDMDL
MODEL 18
REMARK VINA RESULT:      -3.9     10.427     12.502
REMARK  5 active torsions:
REMARK  status: ('A' for Active; 'I' for Inactive)
REMARK    1  A    between atoms: C_2  and  C_3 
REMARK    2  A    between atoms: C_3  and  C_4 
REMARK    3  A    between atoms: C_4  and  C_5 
REMARK    4  A    between atoms: C_5  and  C_6 
REMARK    5  A    between atoms: C_6  and  C_7 
ROOT
HETATM    1  C   LIG     1      14.126  29.615  14.345  1.00  0.00     0.000 C 
ENDROOT
BRANCH   1   2
HETATM    2  C   LIG     1      15.425  29.004  13.793  1.00  0.00    -0.000 C 
BRANCH   2   3
HETATM    3  C   LIG     1      15.299  27.498  13.519  1.00  0.00    -0.005 C 
HETATM    4  C   LIG     1      15.858  27.097  12.155  1.00  0.00     0.005 C 
ENDBRANCH   2   3
ENDBRANCH   1   2
BRANCH   1   5
HETATM    5  C   LIG     1      14.381  30.844  15.233  1.00  0.00     0.001 C 
BRANCH   5   6
HETATM    6  C   LIG     1      13.476  30.874  16.474  1.00  0.00     0.011 C 
BRANCH   6   7
HETATM    7  C   LIG     1      13.933  31.948  17.459  1.00  0.00     0.085 C 
HETATM    8 BR   LIG     1      15.195  33.144  16.604  1.00  0.00    -0.097 Br
ENDBRANCH   6   7
ENDBRANCH   5   6
ENDBRANCH   1   5
TORSDOF 5
ENDMDL
MODEL 19
REMARK VINA RESULT:      -3.9      3.416      4.950
REMARK  5 active torsions:
REMARK  status: ('A' for Active; 'I' for Inactive)
REMARK    1  A    between atoms: C_2  and  C_3 
REMARK    2  A    between atoms: C_3  and  C_4 
REMARK    3  A    between atoms: C_4  and  C_5 
REMARK    4  A    between atoms: C_5  and  C_6 
REMARK    5  A    between atoms: C_6  and  C_7 
ROOT
HETATM    1  C   LIG     1      16.852  35.605  20.662  1.00  0.00     0.000 C 
ENDROOT
BRANCH   1   2
HETATM    2  C   LIG     1      16.849  35.278  22.166  1.00  0.00    -0.000 C 
BRANCH   2   3
HETATM    3  C   LIG     1      16.897  36.539  23.042  1.00  0.00    -0.005 C 
HETATM    4  C   LIG     1      17.158  37.809  22.233  1.00  0.00     0.005 C 
ENDBRANCH   2   3
ENDBRANCH   1   2
BRANCH   1   5
HETATM    5  C   LIG     1      15.729  34.883  19.899  1.00  0.00     0.001 C 
BRANCH   5   6
HETATM    6  C   LIG     1      15.252  33.610  20.614  1.00  0.00     0.011 C 
BRANCH   6   7
HETATM    7  C   LIG     1      15.530  32.370  19.768  1.00  0.00     0.085 C 
HETATM    8 BR   LIG     1      15.029  32.694  17.924  1.00  0.00    -0.097 Br
ENDBRANCH   6   7
ENDBRANCH   5   6
ENDBRANCH   1   5
TORSDOF 5
ENDMDL
MODEL 20
REMARK VINA RESULT:      -3.6      8.888     10.706
REMARK  5 active torsions:
REMARK  status: ('A' for Active; 'I' for Inactive)
REMARK    1  A    between atoms: C_2  and  C_3 
REMARK    2  A    between atoms: C_3  and  C_4 
REMARK    3  A    between atoms: C_4  and  C_5 
REMARK    4  A    between atoms: C_5  and  C_6 
REMARK    5  A    between atoms: C_6  and  C_7 
ROOT
HETATM    1  C   LIG     1      15.905  32.460  14.929  1.00  0.00     0.000 C 
ENDROOT
BRANCH   1   2
HETATM    2  C   LIG     1      15.947  30.927  14.806  1.00  0.00    -0.000 C 
BRANCH   2   3
HETATM    3  C   LIG     1      14.958  30.392  13.760  1.00  0.00    -0.005 C 
HETATM    4  C   LIG     1      13.831  29.568  14.381  1.00  0.00     0.005 C 
ENDBRANCH   2   3
ENDBRANCH   1   2
BRANCH   1   5
HETATM    5  C   LIG     1      15.552  32.929  16.350  1.00  0.00     0.001 C 
BRANCH   5   6
HETATM    6  C   LIG     1      14.140  32.506  16.778  1.00  0.00     0.011 C 
BRANCH   6   7
HETATM    7  C   LIG     1      14.190  31.562  17.977  1.00  0.00     0.085 C 
HETATM    8 BR   LIG     1      15.271  32.333  19.388  1.00  0.00    -0.097 Br
ENDBRANCH   6   7
ENDBRANCH   5   6
ENDBRANCH   1   5
TORSDOF 5
ENDMDL
