REMARK  5 active torsions:
REMARK  status: ('A' for Active; 'I' for Inactive)
REMARK    1  A    between atoms: C_2  and  O_3 
REMARK    2  A    between atoms: O_3  and  C_4 
REMARK    3  A    between atoms: C_4  and  C_5 
REMARK    4  A    between atoms: C_5  and  O_6 
REMARK    5  A    between atoms: O_6  and  C_7 
ROOT
HETATM    1  C   LIG     1      -0.732  -0.389   1.412  1.00  0.00     0.193 C 
ENDROOT
BRANCH   1   2
HETATM    2  O   LIG     1      -1.274  -1.037   0.280  1.00  0.00    -0.389 OA
BRANCH   2   3
HETATM    3  C   LIG     1      -2.681  -0.888   0.249  1.00  0.00     0.163 C 
HETATM    4  C   LIG     1      -3.069   0.270  -0.662  1.00  0.00     0.033 C 
ENDBRANCH   2   3
ENDBRANCH   1   2
BRANCH   1   5
HETATM    5  C   LIG     1       0.789  -0.423   1.333  1.00  0.00     0.193 C 
BRANCH   5   6
HETATM    6  O   LIG     1       1.213   0.281   0.185  1.00  0.00    -0.389 OA
BRANCH   6   7
HETATM    7  C   LIG     1       2.622   0.244   0.103  1.00  0.00     0.163 C 
HETATM    8  C   LIG     1       3.070   1.007  -1.134  1.00  0.00     0.033 C 
ENDBRANCH   6   7
ENDBRANCH   5   6
ENDBRANCH   1   5
TORSDOF 5
