REMARK  4 active torsions:
REMARK  status: ('A' for Active; 'I' for Inactive)
REMARK    1  A    between atoms: C_3  and  C_4 
REMARK    2  A    between atoms: C_4  and  C_5 
REMARK    3  A    between atoms: C_5  and  C_6 
REMARK    4  A    between atoms: C_6  and  C_7 
ROOT
HETATM    1  C   LIG     1       3.198   0.929  -0.489  1.00  0.00     0.012 C 
HETATM    2  C   LIG     1       2.578  -0.099  -0.599  1.00  0.00    -0.117 C 
HETATM    3  C   LIG     1       1.824  -1.352  -0.733  1.00  0.00     0.093 C 
ENDROOT
BRANCH   3   4
HETATM    4  C   LIG     1       0.980  -1.645   0.518  1.00  0.00     0.012 C 
BRANCH   4   5
HETATM    5  C   LIG     1      -0.389  -0.942   0.521  1.00  0.00     0.001 C 
BRANCH   5   6
HETATM    6  C   LIG     1      -0.283   0.581   0.708  1.00  0.00    -0.000 C 
BRANCH   6   7
HETATM    7  C   LIG     1      -1.638   1.232   1.026  1.00  0.00    -0.005 C 
HETATM    8  C   LIG     1      -2.603   1.190  -0.158  1.00  0.00     0.005 C 
ENDBRANCH   6   7
ENDBRANCH   5   6
ENDBRANCH   4   5
ENDBRANCH   3   4
TORSDOF 4
