REMARK  5 active torsions:
REMARK  status: ('A' for Active; 'I' for Inactive)
REMARK    1  A    between atoms: C_2  and  C_3 
REMARK    2  A    between atoms: C_3  and  C_4 
REMARK    3  A    between atoms: C_4  and  C_5 
REMARK    4  A    between atoms: C_5  and  C_6 
REMARK    5  A    between atoms: C_6  and  C_7 
ROOT
HETATM    1  C   LIG     1      -0.224  -0.924  -0.523  1.00  0.00     0.000 C 
ENDROOT
BRANCH   1   2
HETATM    2  C   LIG     1      -0.708   0.461  -0.999  1.00  0.00    -0.000 C 
BRANCH   2   3
HETATM    3  C   LIG     1      -1.589   1.220   0.008  1.00  0.00    -0.005 C 
HETATM    4  C   LIG     1      -2.893   0.490   0.326  1.00  0.00     0.005 C 
ENDBRANCH   2   3
ENDBRANCH   1   2
BRANCH   1   5
HETATM    5  C   LIG     1       0.568  -0.922   0.800  1.00  0.00     0.001 C 
BRANCH   5   6
HETATM    6  C   LIG     1       1.813  -0.018   0.809  1.00  0.00     0.015 C 
BRANCH   6   7
HETATM    7  C   LIG     1       2.862  -0.442  -0.221  1.00  0.00     0.114 C 
HETATM    8 CL   LIG     1       4.342   0.530  -0.019  1.00  0.00    -0.130 Cl
ENDBRANCH   6   7
ENDBRANCH   5   6
ENDBRANCH   1   5
TORSDOF 5
