REMARK  0 active torsions:
REMARK  status: ('A' for Active; 'I' for Inactive)
ROOT
HETATM    1  C   LIG     1      -2.351   0.779   1.997  1.00  0.00     0.020 C 
HETATM    2  C   LIG     1      -1.848   0.199   0.652  1.00  0.00    -0.016 C 
HETATM    3  C   LIG     1      -2.162   1.219  -0.457  1.00  0.00    -0.068 C 
HETATM    4  C   LIG     1      -1.081   2.208  -0.866  1.00  0.00     0.035 C 
HETATM    5  C   LIG     1       0.239   1.500  -1.274  1.00  0.00     0.010 C 
HETATM    6  C   LIG     1       0.320   0.060  -0.724  1.00  0.00    -0.004 C 
HETATM    7  C   LIG     1       1.709  -0.617  -0.770  1.00  0.00     0.006 C 
HETATM    8  C   LIG     1       2.674  -0.380  -1.930  1.00  0.00     0.013 C 
HETATM    9  C   LIG     1       3.970  -1.055  -1.446  1.00  0.00     0.079 C 
HETATM   10  C   LIG     1       3.805  -1.132   0.044  1.00  0.00     0.135 C 
HETATM   11  O   LIG     1       4.647  -1.609   0.789  1.00  0.00    -0.297 OA
HETATM   12  C   LIG     1      -0.288   0.004   0.715  1.00  0.00     0.002 C 
HETATM   13  C   LIG     1       0.231  -1.226   1.516  1.00  0.00     0.007 C 
HETATM   14  C   LIG     1       1.787  -1.238   1.669  1.00  0.00     0.018 C 
HETATM   15  C   LIG     1       2.535  -0.494   0.518  1.00  0.00     0.021 C 
HETATM   16  C   LIG     1       2.911   0.958   0.921  1.00  0.00     0.024 C 
HETATM   17  C   LIG     1      -3.333   1.199  -1.114  1.00  0.00     0.053 C 
HETATM   18  C   LIG     1      -4.342   0.157  -0.866  1.00  0.00     0.149 C 
HETATM   19  C   LIG     1      -4.081  -0.963   0.098  1.00  0.00     0.084 C 
HETATM   20  C   LIG     1      -2.578  -1.147   0.355  1.00  0.00     0.022 C 
HETATM   21  O   LIG     1      -5.451   0.217  -1.459  1.00  0.00    -0.293 OA
ENDROOT
TORSDOF 0
