MODEL 1
REMARK VINA RESULT:      -6.0      0.000      0.000
REMARK  0 active torsions:
REMARK  status: ('A' for Active; 'I' for Inactive)
ROOT
HETATM    1  C   LIG     1      26.967  28.368  36.833  1.00  0.00     0.020 C 
HETATM    2  C   LIG     1      27.334  29.390  35.729  1.00  0.00    -0.016 C 
HETATM    3  C   LIG     1      28.655  30.072  36.128  1.00  0.00    -0.068 C 
HETATM    4  C   LIG     1      29.959  29.516  35.576  1.00  0.00     0.035 C 
HETATM    5  C   LIG     1      29.952  29.433  34.026  1.00  0.00     0.010 C 
HETATM    6  C   LIG     1      28.521  29.457  33.449  1.00  0.00    -0.004 C 
HETATM    7  C   LIG     1      28.369  29.041  31.968  1.00  0.00     0.006 C 
HETATM    8  C   LIG     1      29.425  29.402  30.925  1.00  0.00     0.013 C 
HETATM    9  C   LIG     1      28.973  28.609  29.685  1.00  0.00     0.079 C 
HETATM   10  C   LIG     1      28.088  27.533  30.245  1.00  0.00     0.135 C 
HETATM   11  O   LIG     1      27.539  26.689  29.554  1.00  0.00    -0.297 OA
HETATM   12  C   LIG     1      27.561  28.634  34.368  1.00  0.00     0.002 C 
HETATM   13  C   LIG     1      26.286  28.168  33.606  1.00  0.00     0.007 C 
HETATM   14  C   LIG     1      26.613  27.279  32.362  1.00  0.00     0.018 C 
HETATM   15  C   LIG     1      28.017  27.564  31.741  1.00  0.00     0.021 C 
HETATM   16  C   LIG     1      29.083  26.550  32.240  1.00  0.00     0.024 C 
HETATM   17  C   LIG     1      28.668  31.182  36.883  1.00  0.00     0.053 C 
HETATM   18  C   LIG     1      27.425  31.849  37.301  1.00  0.00     0.149 C 
HETATM   19  C   LIG     1      26.085  31.343  36.854  1.00  0.00     0.084 C 
HETATM   20  C   LIG     1      26.204  30.457  35.605  1.00  0.00     0.022 C 
HETATM   21  O   LIG     1      27.486  32.850  38.063  1.00  0.00    -0.293 OA
ENDROOT
TORSDOF 0
ENDMDL
MODEL 2
REMARK VINA RESULT:      -6.0      0.994      6.333
REMARK  0 active torsions:
REMARK  status: ('A' for Active; 'I' for Inactive)
ROOT
HETATM    1  C   LIG     1      30.058  26.985  32.194  1.00  0.00     0.020 C 
HETATM    2  C   LIG     1      28.780  27.858  32.245  1.00  0.00    -0.016 C 
HETATM    3  C   LIG     1      27.559  26.921  32.236  1.00  0.00    -0.068 C 
HETATM    4  C   LIG     1      26.935  26.524  33.565  1.00  0.00     0.035 C 
HETATM    5  C   LIG     1      26.541  27.758  34.422  1.00  0.00     0.010 C 
HETATM    6  C   LIG     1      27.289  29.034  33.979  1.00  0.00    -0.004 C 
HETATM    7  C   LIG     1      27.243  30.231  34.956  1.00  0.00     0.006 C 
HETATM    8  C   LIG     1      25.995  30.541  35.780  1.00  0.00     0.013 C 
HETATM    9  C   LIG     1      26.479  31.643  36.740  1.00  0.00     0.079 C 
HETATM   10  C   LIG     1      27.973  31.490  36.746  1.00  0.00     0.135 C 
HETATM   11  O   LIG     1      28.717  32.196  37.408  1.00  0.00    -0.297 OA
HETATM   12  C   LIG     1      28.760  28.681  33.586  1.00  0.00     0.002 C 
HETATM   13  C   LIG     1      29.693  29.925  33.657  1.00  0.00     0.007 C 
HETATM   14  C   LIG     1      29.735  30.572  35.080  1.00  0.00     0.018 C 
HETATM   15  C   LIG     1      28.437  30.333  35.915  1.00  0.00     0.021 C 
HETATM   16  C   LIG     1      28.596  29.139  36.895  1.00  0.00     0.024 C 
HETATM   17  C   LIG     1      26.997  26.516  31.086  1.00  0.00     0.053 C 
HETATM   18  C   LIG     1      27.466  27.008  29.780  1.00  0.00     0.149 C 
HETATM   19  C   LIG     1      28.562  28.028  29.683  1.00  0.00     0.084 C 
HETATM   20  C   LIG     1      28.735  28.797  31.001  1.00  0.00     0.022 C 
HETATM   21  O   LIG     1      26.951  26.551  28.727  1.00  0.00    -0.293 OA
ENDROOT
TORSDOF 0
ENDMDL
MODEL 3
REMARK VINA RESULT:      -5.6      9.507     11.497
REMARK  0 active torsions:
REMARK  status: ('A' for Active; 'I' for Inactive)
ROOT
HETATM    1  C   LIG     1      18.954  22.833  34.757  1.00  0.00     0.020 C 
HETATM    2  C   LIG     1      20.196  22.123  34.163  1.00  0.00    -0.016 C 
HETATM    3  C   LIG     1      20.631  21.019  35.142  1.00  0.00    -0.068 C 
HETATM    4  C   LIG     1      20.130  19.601  34.912  1.00  0.00     0.035 C 
HETATM    5  C   LIG     1      20.460  19.085  33.485  1.00  0.00     0.010 C 
HETATM    6  C   LIG     1      20.760  20.240  32.505  1.00  0.00    -0.004 C 
HETATM    7  C   LIG     1      20.764  19.882  31.002  1.00  0.00     0.006 C 
HETATM    8  C   LIG     1      21.295  18.540  30.502  1.00  0.00     0.013 C 
HETATM    9  C   LIG     1      20.901  18.542  29.014  1.00  0.00     0.079 C 
HETATM   10  C   LIG     1      19.796  19.555  28.934  1.00  0.00     0.135 C 
HETATM   11  O   LIG     1      19.215  19.834  27.896  1.00  0.00    -0.297 OA
HETATM   12  C   LIG     1      19.809  21.446  32.796  1.00  0.00     0.002 C 
HETATM   13  C   LIG     1      19.674  22.387  31.563  1.00  0.00     0.007 C 
HETATM   14  C   LIG     1      19.120  21.654  30.298  1.00  0.00     0.018 C 
HETATM   15  C   LIG     1      19.436  20.125  30.272  1.00  0.00     0.021 C 
HETATM   16  C   LIG     1      18.239  19.282  30.788  1.00  0.00     0.024 C 
HETATM   17  C   LIG     1      21.497  21.269  36.137  1.00  0.00     0.053 C 
HETATM   18  C   LIG     1      22.135  22.585  36.296  1.00  0.00     0.149 C 
HETATM   19  C   LIG     1      21.883  23.693  35.316  1.00  0.00     0.084 C 
HETATM   20  C   LIG     1      21.352  23.154  33.980  1.00  0.00     0.022 C 
HETATM   21  O   LIG     1      22.890  22.791  37.283  1.00  0.00    -0.293 OA
ENDROOT
TORSDOF 0
ENDMDL
MODEL 4
REMARK VINA RESULT:      -5.5     14.116     16.587
REMARK  0 active torsions:
REMARK  status: ('A' for Active; 'I' for Inactive)
ROOT
HETATM    1  C   LIG     1      22.823  22.418  21.632  1.00  0.00     0.020 C 
HETATM    2  C   LIG     1      23.956  21.751  20.814  1.00  0.00    -0.016 C 
HETATM    3  C   LIG     1      23.354  21.235  19.495  1.00  0.00    -0.068 C 
HETATM    4  C   LIG     1      23.440  22.117  18.258  1.00  0.00     0.035 C 
HETATM    5  C   LIG     1      24.899  22.547  17.944  1.00  0.00     0.010 C 
HETATM    6  C   LIG     1      25.823  22.407  19.172  1.00  0.00    -0.004 C 
HETATM    7  C   LIG     1      27.195  23.116  19.084  1.00  0.00     0.006 C 
HETATM    8  C   LIG     1      27.973  23.187  17.772  1.00  0.00     0.013 C 
HETATM    9  C   LIG     1      29.127  24.150  18.106  1.00  0.00     0.079 C 
HETATM   10  C   LIG     1      28.636  24.903  19.308  1.00  0.00     0.135 C 
HETATM   11  O   LIG     1      29.285  25.773  19.867  1.00  0.00    -0.297 OA
HETATM   12  C   LIG     1      25.055  22.823  20.468  1.00  0.00     0.002 C 
HETATM   13  C   LIG     1      26.028  23.223  21.615  1.00  0.00     0.007 C 
HETATM   14  C   LIG     1      26.965  24.413  21.230  1.00  0.00     0.018 C 
HETATM   15  C   LIG     1      27.240  24.522  19.697  1.00  0.00     0.021 C 
HETATM   16  C   LIG     1      26.309  25.564  19.019  1.00  0.00     0.024 C 
HETATM   17  C   LIG     1      22.831  20.002  19.401  1.00  0.00     0.053 C 
HETATM   18  C   LIG     1      22.876  19.054  20.525  1.00  0.00     0.149 C 
HETATM   19  C   LIG     1      23.560  19.409  21.813  1.00  0.00     0.084 C 
HETATM   20  C   LIG     1      24.557  20.561  21.623  1.00  0.00     0.022 C 
HETATM   21  O   LIG     1      22.315  17.933  20.412  1.00  0.00    -0.293 OA
ENDROOT
TORSDOF 0
ENDMDL
MODEL 5
REMARK VINA RESULT:      -5.5     13.953     16.132
REMARK  0 active torsions:
REMARK  status: ('A' for Active; 'I' for Inactive)
ROOT
HETATM    1  C   LIG     1      26.449  20.937  19.780  1.00  0.00     0.020 C 
HETATM    2  C   LIG     1      26.008  22.419  19.700  1.00  0.00    -0.016 C 
HETATM    3  C   LIG     1      25.814  22.939  21.136  1.00  0.00    -0.068 C 
HETATM    4  C   LIG     1      26.966  23.668  21.810  1.00  0.00     0.035 C 
HETATM    5  C   LIG     1      27.475  24.869  20.967  1.00  0.00     0.010 C 
HETATM    6  C   LIG     1      27.057  24.758  19.486  1.00  0.00    -0.004 C 
HETATM    7  C   LIG     1      27.780  25.697  18.494  1.00  0.00     0.006 C 
HETATM    8  C   LIG     1      28.171  27.121  18.885  1.00  0.00     0.013 C 
HETATM    9  C   LIG     1      29.039  27.580  17.699  1.00  0.00     0.079 C 
HETATM   10  C   LIG     1      29.478  26.299  17.053  1.00  0.00     0.135 C 
HETATM   11  O   LIG     1      30.198  26.256  16.067  1.00  0.00    -0.297 OA
HETATM   12  C   LIG     1      27.144  23.268  19.018  1.00  0.00     0.002 C 
HETATM   13  C   LIG     1      27.269  23.153  17.471  1.00  0.00     0.007 C 
HETATM   14  C   LIG     1      28.527  23.891  16.907  1.00  0.00     0.018 C 
HETATM   15  C   LIG     1      29.001  25.086  17.792  1.00  0.00     0.021 C 
HETATM   16  C   LIG     1      30.164  24.676  18.736  1.00  0.00     0.024 C 
HETATM   17  C   LIG     1      24.633  22.828  21.766  1.00  0.00     0.053 C 
HETATM   18  C   LIG     1      23.445  22.280  21.092  1.00  0.00     0.149 C 
HETATM   19  C   LIG     1      23.491  21.868  19.650  1.00  0.00     0.084 C 
HETATM   20  C   LIG     1      24.666  22.527  18.913  1.00  0.00     0.022 C 
HETATM   21  O   LIG     1      22.377  22.135  21.743  1.00  0.00    -0.293 OA
ENDROOT
TORSDOF 0
ENDMDL
MODEL 6
REMARK VINA RESULT:      -5.4     11.907     16.198
REMARK  0 active torsions:
REMARK  status: ('A' for Active; 'I' for Inactive)
ROOT
HETATM    1  C   LIG     1      25.609  21.539  19.795  1.00  0.00     0.020 C 
HETATM    2  C   LIG     1      24.295  21.104  20.488  1.00  0.00    -0.016 C 
HETATM    3  C   LIG     1      24.057  19.616  20.174  1.00  0.00    -0.068 C 
HETATM    4  C   LIG     1      24.534  18.573  21.173  1.00  0.00     0.035 C 
HETATM    5  C   LIG     1      23.968  18.823  22.597  1.00  0.00     0.010 C 
HETATM    6  C   LIG     1      23.481  20.276  22.783  1.00  0.00    -0.004 C 
HETATM    7  C   LIG     1      23.219  20.733  24.236  1.00  0.00     0.006 C 
HETATM    8  C   LIG     1      22.632  19.783  25.278  1.00  0.00     0.013 C 
HETATM    9  C   LIG     1      22.760  20.582  26.587  1.00  0.00     0.079 C 
HETATM   10  C   LIG     1      23.816  21.606  26.286  1.00  0.00     0.135 C 
HETATM   11  O   LIG     1      24.200  22.432  27.099  1.00  0.00    -0.297 OA
HETATM   12  C   LIG     1      24.447  21.260  22.047  1.00  0.00     0.002 C 
HETATM   13  C   LIG     1      24.348  22.705  22.618  1.00  0.00     0.007 C 
HETATM   14  C   LIG     1      24.684  22.779  24.143  1.00  0.00     0.018 C 
HETATM   15  C   LIG     1      24.395  21.452  24.913  1.00  0.00     0.021 C 
HETATM   16  C   LIG     1      25.678  20.594  25.085  1.00  0.00     0.024 C 
HETATM   17  C   LIG     1      23.375  19.233  19.082  1.00  0.00     0.053 C 
HETATM   18  C   LIG     1      22.753  20.211  18.175  1.00  0.00     0.149 C 
HETATM   19  C   LIG     1      22.809  21.683  18.463  1.00  0.00     0.084 C 
HETATM   20  C   LIG     1      23.107  21.956  19.945  1.00  0.00     0.022 C 
HETATM   21  O   LIG     1      22.179  19.807  17.130  1.00  0.00    -0.293 OA
ENDROOT
TORSDOF 0
ENDMDL
MODEL 7
REMARK VINA RESULT:      -5.4     14.725     16.866
REMARK  0 active torsions:
REMARK  status: ('A' for Active; 'I' for Inactive)
ROOT
HETATM    1  C   LIG     1      29.484  24.711  19.966  1.00  0.00     0.020 C 
HETATM    2  C   LIG     1      28.308  24.635  18.961  1.00  0.00    -0.016 C 
HETATM    3  C   LIG     1      28.834  24.012  17.655  1.00  0.00    -0.068 C 
HETATM    4  C   LIG     1      28.669  22.515  17.443  1.00  0.00     0.035 C 
HETATM    5  C   LIG     1      27.193  22.059  17.590  1.00  0.00     0.010 C 
HETATM    6  C   LIG     1      26.343  23.085  18.371  1.00  0.00    -0.004 C 
HETATM    7  C   LIG     1      24.965  22.597  18.873  1.00  0.00     0.006 C 
HETATM    8  C   LIG     1      24.109  21.637  18.048  1.00  0.00     0.013 C 
HETATM    9  C   LIG     1      22.972  21.267  19.017  1.00  0.00     0.079 C 
HETATM   10  C   LIG     1      23.529  21.591  20.373  1.00  0.00     0.135 C 
HETATM   11  O   LIG     1      22.909  21.423  21.411  1.00  0.00    -0.297 OA
HETATM   12  C   LIG     1      27.185  23.696  19.538  1.00  0.00     0.002 C 
HETATM   13  C   LIG     1      26.280  24.294  20.654  1.00  0.00     0.007 C 
HETATM   14  C   LIG     1      25.314  23.237  21.283  1.00  0.00     0.018 C 
HETATM   15  C   LIG     1      24.948  22.069  20.315  1.00  0.00     0.021 C 
HETATM   16  C   LIG     1      25.831  20.816  20.566  1.00  0.00     0.024 C 
HETATM   17  C   LIG     1      29.358  24.772  16.680  1.00  0.00     0.053 C 
HETATM   18  C   LIG     1      29.385  26.240  16.772  1.00  0.00     0.149 C 
HETATM   19  C   LIG     1      28.777  26.956  17.943  1.00  0.00     0.084 C 
HETATM   20  C   LIG     1      27.763  26.069  18.681  1.00  0.00     0.022 C 
HETATM   21  O   LIG     1      29.945  26.906  15.863  1.00  0.00    -0.293 OA
ENDROOT
TORSDOF 0
ENDMDL
MODEL 8
REMARK VINA RESULT:      -5.4     11.168     14.166
REMARK  0 active torsions:
REMARK  status: ('A' for Active; 'I' for Inactive)
ROOT
HETATM    1  C   LIG     1      25.332  23.495  25.435  1.00  0.00     0.020 C 
HETATM    2  C   LIG     1      25.419  22.120  24.728  1.00  0.00    -0.016 C 
HETATM    3  C   LIG     1      24.667  21.090  25.590  1.00  0.00    -0.068 C 
HETATM    4  C   LIG     1      23.212  20.788  25.263  1.00  0.00     0.035 C 
HETATM    5  C   LIG     1      23.020  20.355  23.785  1.00  0.00     0.010 C 
HETATM    6  C   LIG     1      24.204  20.788  22.894  1.00  0.00    -0.004 C 
HETATM    7  C   LIG     1      23.977  20.720  21.367  1.00  0.00     0.006 C 
HETATM    8  C   LIG     1      23.146  19.606  20.732  1.00  0.00     0.013 C 
HETATM    9  C   LIG     1      23.012  20.064  19.269  1.00  0.00     0.079 C 
HETATM   10  C   LIG     1      23.288  21.538  19.323  1.00  0.00     0.135 C 
HETATM   11  O   LIG     1      23.267  22.262  18.339  1.00  0.00    -0.297 OA
HETATM   12  C   LIG     1      24.708  22.203  23.327  1.00  0.00     0.002 C 
HETATM   13  C   LIG     1      25.493  22.914  22.186  1.00  0.00     0.007 C 
HETATM   14  C   LIG     1      24.640  23.102  20.889  1.00  0.00     0.018 C 
HETATM   15  C   LIG     1      23.515  22.033  20.719  1.00  0.00     0.021 C 
HETATM   16  C   LIG     1      22.141  22.561  21.213  1.00  0.00     0.024 C 
HETATM   17  C   LIG     1      25.289  20.406  26.565  1.00  0.00     0.053 C 
HETATM   18  C   LIG     1      26.733  20.545  26.807  1.00  0.00     0.149 C 
HETATM   19  C   LIG     1      27.586  21.421  25.936  1.00  0.00     0.084 C 
HETATM   20  C   LIG     1      26.913  21.697  24.583  1.00  0.00     0.022 C 
HETATM   21  O   LIG     1      27.260  19.933  27.773  1.00  0.00    -0.293 OA
ENDROOT
TORSDOF 0
ENDMDL
MODEL 9
REMARK VINA RESULT:      -5.3     15.104     17.927
REMARK  0 active torsions:
REMARK  status: ('A' for Active; 'I' for Inactive)
ROOT
HETATM    1  C   LIG     1      25.446  23.431  20.718  1.00  0.00     0.020 C 
HETATM    2  C   LIG     1      25.948  23.018  19.312  1.00  0.00    -0.016 C 
HETATM    3  C   LIG     1      27.419  22.581  19.438  1.00  0.00    -0.068 C 
HETATM    4  C   LIG     1      27.728  21.102  19.613  1.00  0.00     0.035 C 
HETATM    5  C   LIG     1      27.101  20.234  18.489  1.00  0.00     0.010 C 
HETATM    6  C   LIG     1      25.948  20.963  17.766  1.00  0.00    -0.004 C 
HETATM    7  C   LIG     1      25.034  20.091  16.875  1.00  0.00     0.006 C 
HETATM    8  C   LIG     1      25.590  18.926  16.059  1.00  0.00     0.013 C 
HETATM    9  C   LIG     1      24.321  18.236  15.529  1.00  0.00     0.079 C 
HETATM   10  C   LIG     1      23.238  18.704  16.458  1.00  0.00     0.135 C 
HETATM   11  O   LIG     1      22.071  18.358  16.358  1.00  0.00    -0.297 OA
HETATM   12  C   LIG     1      25.111  21.790  18.796  1.00  0.00     0.002 C 
HETATM   13  C   LIG     1      23.678  22.092  18.268  1.00  0.00     0.007 C 
HETATM   14  C   LIG     1      22.865  20.797  17.943  1.00  0.00     0.018 C 
HETATM   15  C   LIG     1      23.760  19.576  17.559  1.00  0.00     0.021 C 
HETATM   16  C   LIG     1      23.999  18.635  18.772  1.00  0.00     0.024 C 
HETATM   17  C   LIG     1      28.423  23.464  19.319  1.00  0.00     0.053 C 
HETATM   18  C   LIG     1      28.177  24.876  18.984  1.00  0.00     0.149 C 
HETATM   19  C   LIG     1      26.790  25.378  18.708  1.00  0.00     0.084 C 
HETATM   20  C   LIG     1      25.838  24.231  18.338  1.00  0.00     0.022 C 
HETATM   21  O   LIG     1      29.145  25.681  18.948  1.00  0.00    -0.293 OA
ENDROOT
TORSDOF 0
ENDMDL
MODEL 10
REMARK VINA RESULT:      -5.2      3.111      7.694
REMARK  0 active torsions:
REMARK  status: ('A' for Active; 'I' for Inactive)
ROOT
HETATM    1  C   LIG     1      29.103  25.122  28.000  1.00  0.00     0.020 C 
HETATM    2  C   LIG     1      27.881  25.227  28.945  1.00  0.00    -0.016 C 
HETATM    3  C   LIG     1      27.683  23.861  29.626  1.00  0.00    -0.068 C 
HETATM    4  C   LIG     1      28.299  23.633  30.998  1.00  0.00     0.035 C 
HETATM    5  C   LIG     1      27.858  24.710  32.026  1.00  0.00     0.010 C 
HETATM    6  C   LIG     1      27.324  25.985  31.339  1.00  0.00    -0.004 C 
HETATM    7  C   LIG     1      27.179  27.238  32.232  1.00  0.00     0.006 C 
HETATM    8  C   LIG     1      26.736  27.132  33.690  1.00  0.00     0.013 C 
HETATM    9  C   LIG     1      26.949  28.561  34.221  1.00  0.00     0.079 C 
HETATM   10  C   LIG     1      27.924  29.167  33.255  1.00  0.00     0.135 C 
HETATM   11  O   LIG     1      28.344  30.309  33.353  1.00  0.00    -0.297 OA
HETATM   12  C   LIG     1      28.171  26.296  30.062  1.00  0.00     0.002 C 
HETATM   13  C   LIG     1      28.060  27.792  29.644  1.00  0.00     0.007 C 
HETATM   14  C   LIG     1      28.533  28.773  30.765  1.00  0.00     0.018 C 
HETATM   15  C   LIG     1      28.378  28.196  32.208  1.00  0.00     0.021 C 
HETATM   16  C   LIG     1      29.710  27.594  32.733  1.00  0.00     0.024 C 
HETATM   17  C   LIG     1      26.920  22.906  29.069  1.00  0.00     0.053 C 
HETATM   18  C   LIG     1      26.171  23.142  27.824  1.00  0.00     0.149 C 
HETATM   19  C   LIG     1      26.187  24.482  27.150  1.00  0.00     0.084 C 
HETATM   20  C   LIG     1      26.610  25.596  28.120  1.00  0.00     0.022 C 
HETATM   21  O   LIG     1      25.522  22.196  27.305  1.00  0.00    -0.293 OA
ENDROOT
TORSDOF 0
ENDMDL
MODEL 11
REMARK VINA RESULT:      -5.0     10.794     14.887
REMARK  0 active torsions:
REMARK  status: ('A' for Active; 'I' for Inactive)
ROOT
HETATM    1  C   LIG     1      22.400  22.635  21.350  1.00  0.00     0.020 C 
HETATM    2  C   LIG     1      23.730  21.855  21.490  1.00  0.00    -0.016 C 
HETATM    3  C   LIG     1      24.741  22.447  20.492  1.00  0.00    -0.068 C 
HETATM    4  C   LIG     1      25.707  23.516  20.979  1.00  0.00     0.035 C 
HETATM    5  C   LIG     1      26.524  23.050  22.215  1.00  0.00     0.010 C 
HETATM    6  C   LIG     1      25.854  21.864  22.941  1.00  0.00    -0.004 C 
HETATM    7  C   LIG     1      26.380  21.539  24.357  1.00  0.00     0.006 C 
HETATM    8  C   LIG     1      27.859  21.679  24.711  1.00  0.00     0.013 C 
HETATM    9  C   LIG     1      27.872  21.473  26.236  1.00  0.00     0.079 C 
HETATM   10  C   LIG     1      26.457  21.754  26.653  1.00  0.00     0.135 C 
HETATM   11  O   LIG     1      26.074  21.697  27.811  1.00  0.00    -0.297 OA
HETATM   12  C   LIG     1      24.301  22.049  22.943  1.00  0.00     0.002 C 
HETATM   13  C   LIG     1      23.622  21.226  24.077  1.00  0.00     0.007 C 
HETATM   14  C   LIG     1      24.138  21.615  25.501  1.00  0.00     0.018 C 
HETATM   15  C   LIG     1      25.592  22.183  25.507  1.00  0.00     0.021 C 
HETATM   16  C   LIG     1      25.603  23.735  25.522  1.00  0.00     0.024 C 
HETATM   17  C   LIG     1      24.833  21.985  19.234  1.00  0.00     0.053 C 
HETATM   18  C   LIG     1      24.034  20.841  18.769  1.00  0.00     0.149 C 
HETATM   19  C   LIG     1      23.116  20.105  19.700  1.00  0.00     0.084 C 
HETATM   20  C   LIG     1      23.491  20.347  21.170  1.00  0.00     0.022 C 
HETATM   21  O   LIG     1      24.107  20.486  17.563  1.00  0.00    -0.293 OA
ENDROOT
TORSDOF 0
ENDMDL
MODEL 12
REMARK VINA RESULT:      -4.9      1.663      6.140
REMARK  0 active torsions:
REMARK  status: ('A' for Active; 'I' for Inactive)
ROOT
HETATM    1  C   LIG     1      27.068  27.128  30.863  1.00  0.00     0.020 C 
HETATM    2  C   LIG     1      28.047  27.046  32.060  1.00  0.00    -0.016 C 
HETATM    3  C   LIG     1      29.483  27.092  31.509  1.00  0.00    -0.068 C 
HETATM    4  C   LIG     1      30.200  28.432  31.449  1.00  0.00     0.035 C 
HETATM    5  C   LIG     1      30.230  29.144  32.828  1.00  0.00     0.010 C 
HETATM    6  C   LIG     1      29.151  28.600  33.787  1.00  0.00    -0.004 C 
HETATM    7  C   LIG     1      28.858  29.447  35.047  1.00  0.00     0.006 C 
HETATM    8  C   LIG     1      29.970  30.193  35.782  1.00  0.00     0.013 C 
HETATM    9  C   LIG     1      29.197  31.051  36.800  1.00  0.00     0.079 C 
HETATM   10  C   LIG     1      27.809  31.124  36.234  1.00  0.00     0.135 C 
HETATM   11  O   LIG     1      26.897  31.735  36.769  1.00  0.00    -0.297 OA
HETATM   12  C   LIG     1      27.838  28.295  32.995  1.00  0.00     0.002 C 
HETATM   13  C   LIG     1      26.591  28.270  33.926  1.00  0.00     0.007 C 
HETATM   14  C   LIG     1      26.373  29.620  34.684  1.00  0.00     0.018 C 
HETATM   15  C   LIG     1      27.688  30.431  34.911  1.00  0.00     0.021 C 
HETATM   16  C   LIG     1      27.877  31.533  33.833  1.00  0.00     0.024 C 
HETATM   17  C   LIG     1      30.133  25.970  31.158  1.00  0.00     0.053 C 
HETATM   18  C   LIG     1      29.540  24.638  31.355  1.00  0.00     0.149 C 
HETATM   19  C   LIG     1      28.199  24.474  32.009  1.00  0.00     0.084 C 
HETATM   20  C   LIG     1      27.819  25.712  32.835  1.00  0.00     0.022 C 
HETATM   21  O   LIG     1      30.159  23.619  30.951  1.00  0.00    -0.293 OA
ENDROOT
TORSDOF 0
ENDMDL
MODEL 13
REMARK VINA RESULT:      -4.9      8.699     10.425
REMARK  0 active torsions:
REMARK  status: ('A' for Active; 'I' for Inactive)
ROOT
HETATM    1  C   LIG     1      23.549  22.832  38.129  1.00  0.00     0.020 C 
HETATM    2  C   LIG     1      23.644  21.881  36.910  1.00  0.00    -0.016 C 
HETATM    3  C   LIG     1      23.502  20.435  37.418  1.00  0.00    -0.068 C 
HETATM    4  C   LIG     1      22.128  19.784  37.391  1.00  0.00     0.035 C 
HETATM    5  C   LIG     1      21.486  19.824  35.978  1.00  0.00     0.010 C 
HETATM    6  C   LIG     1      22.130  20.900  35.078  1.00  0.00    -0.004 C 
HETATM    7  C   LIG     1      21.363  21.265  33.786  1.00  0.00     0.006 C 
HETATM    8  C   LIG     1      20.603  20.211  32.984  1.00  0.00     0.013 C 
HETATM    9  C   LIG     1      19.836  21.050  31.947  1.00  0.00     0.079 C 
HETATM   10  C   LIG     1      19.801  22.426  32.547  1.00  0.00     0.135 C 
HETATM   11  O   LIG     1      19.263  23.380  32.008  1.00  0.00    -0.297 OA
HETATM   12  C   LIG     1      22.456  22.175  35.921  1.00  0.00     0.002 C 
HETATM   13  C   LIG     1      22.588  23.443  35.027  1.00  0.00     0.007 C 
HETATM   14  C   LIG     1      21.291  23.746  34.209  1.00  0.00     0.018 C 
HETATM   15  C   LIG     1      20.431  22.479  33.905  1.00  0.00     0.021 C 
HETATM   16  C   LIG     1      19.268  22.316  34.922  1.00  0.00     0.024 C 
HETATM   17  C   LIG     1      24.572  19.723  37.806  1.00  0.00     0.053 C 
HETATM   18  C   LIG     1      25.940  20.255  37.692  1.00  0.00     0.149 C 
HETATM   19  C   LIG     1      26.201  21.602  37.085  1.00  0.00     0.084 C 
HETATM   20  C   LIG     1      25.026  22.063  36.209  1.00  0.00     0.022 C 
HETATM   21  O   LIG     1      26.905  19.576  38.129  1.00  0.00    -0.293 OA
ENDROOT
TORSDOF 0
ENDMDL
MODEL 14
REMARK VINA RESULT:      -4.9     11.026     14.565
REMARK  0 active torsions:
REMARK  status: ('A' for Active; 'I' for Inactive)
ROOT
HETATM    1  C   LIG     1      26.192  20.370  24.781  1.00  0.00     0.020 C 
HETATM    2  C   LIG     1      25.451  21.438  23.939  1.00  0.00    -0.016 C 
HETATM    3  C   LIG     1      26.461  22.535  23.560  1.00  0.00    -0.068 C 
HETATM    4  C   LIG     1      27.163  22.447  22.213  1.00  0.00     0.035 C 
HETATM    5  C   LIG     1      26.159  22.341  21.034  1.00  0.00     0.010 C 
HETATM    6  C   LIG     1      24.765  21.867  21.499  1.00  0.00    -0.004 C 
HETATM    7  C   LIG     1      23.793  21.399  20.391  1.00  0.00     0.006 C 
HETATM    8  C   LIG     1      23.752  22.081  19.025  1.00  0.00     0.013 C 
HETATM    9  C   LIG     1      22.828  21.162  18.206  1.00  0.00     0.079 C 
HETATM   10  C   LIG     1      22.861  19.858  18.950  1.00  0.00     0.135 C 
HETATM   11  O   LIG     1      22.243  18.866  18.594  1.00  0.00    -0.297 OA
HETATM   12  C   LIG     1      24.915  20.782  22.614  1.00  0.00     0.002 C 
HETATM   13  C   LIG     1      23.639  19.898  22.737  1.00  0.00     0.007 C 
HETATM   14  C   LIG     1      23.286  19.152  21.409  1.00  0.00     0.018 C 
HETATM   15  C   LIG     1      23.789  19.888  20.126  1.00  0.00     0.021 C 
HETATM   16  C   LIG     1      25.137  19.306  19.621  1.00  0.00     0.024 C 
HETATM   17  C   LIG     1      26.673  23.596  24.356  1.00  0.00     0.053 C 
HETATM   18  C   LIG     1      25.896  23.807  25.588  1.00  0.00     0.149 C 
HETATM   19  C   LIG     1      24.793  22.868  25.981  1.00  0.00     0.084 C 
HETATM   20  C   LIG     1      24.290  22.055  24.779  1.00  0.00     0.022 C 
HETATM   21  O   LIG     1      26.175  24.781  26.335  1.00  0.00    -0.293 OA
ENDROOT
TORSDOF 0
ENDMDL
MODEL 15
REMARK VINA RESULT:      -4.8     13.672     15.286
REMARK  0 active torsions:
REMARK  status: ('A' for Active; 'I' for Inactive)
ROOT
HETATM    1  C   LIG     1      24.124  21.826  19.110  1.00  0.00     0.020 C 
HETATM    2  C   LIG     1      24.816  22.329  20.401  1.00  0.00    -0.016 C 
HETATM    3  C   LIG     1      25.327  21.104  21.180  1.00  0.00    -0.068 C 
HETATM    4  C   LIG     1      26.769  20.663  20.982  1.00  0.00     0.035 C 
HETATM    5  C   LIG     1      27.777  21.813  21.251  1.00  0.00     0.010 C 
HETATM    6  C   LIG     1      27.109  23.202  21.172  1.00  0.00    -0.004 C 
HETATM    7  C   LIG     1      28.058  24.418  21.082  1.00  0.00     0.006 C 
HETATM    8  C   LIG     1      29.387  24.451  21.836  1.00  0.00     0.013 C 
HETATM    9  C   LIG     1      30.068  25.715  21.281  1.00  0.00     0.079 C 
HETATM   10  C   LIG     1      29.367  25.964  19.978  1.00  0.00     0.135 C 
HETATM   11  O   LIG     1      29.642  26.893  19.234  1.00  0.00    -0.297 OA
HETATM   12  C   LIG     1      26.054  23.222  20.019  1.00  0.00     0.002 C 
HETATM   13  C   LIG     1      25.750  24.671  19.537  1.00  0.00     0.007 C 
HETATM   14  C   LIG     1      27.021  25.417  19.016  1.00  0.00     0.018 C 
HETATM   15  C   LIG     1      28.351  24.910  19.658  1.00  0.00     0.021 C 
HETATM   16  C   LIG     1      29.075  23.883  18.745  1.00  0.00     0.024 C 
HETATM   17  C   LIG     1      24.552  20.475  22.078  1.00  0.00     0.053 C 
HETATM   18  C   LIG     1      23.209  20.967  22.423  1.00  0.00     0.149 C 
HETATM   19  C   LIG     1      22.667  22.230  21.821  1.00  0.00     0.084 C 
HETATM   20  C   LIG     1      23.792  23.121  21.271  1.00  0.00     0.022 C 
HETATM   21  O   LIG     1      22.495  20.307  23.222  1.00  0.00    -0.293 OA
ENDROOT
TORSDOF 0
ENDMDL
MODEL 16
REMARK VINA RESULT:      -4.8      8.491     13.206
REMARK  0 active torsions:
REMARK  status: ('A' for Active; 'I' for Inactive)
ROOT
HETATM    1  C   LIG     1      26.091  20.608  21.966  1.00  0.00     0.020 C 
HETATM    2  C   LIG     1      25.600  21.946  22.571  1.00  0.00    -0.016 C 
HETATM    3  C   LIG     1      24.175  21.734  23.112  1.00  0.00    -0.068 C 
HETATM    4  C   LIG     1      23.997  21.393  24.584  1.00  0.00     0.035 C 
HETATM    5  C   LIG     1      24.676  22.434  25.514  1.00  0.00     0.010 C 
HETATM    6  C   LIG     1      25.748  23.262  24.775  1.00  0.00    -0.004 C 
HETATM    7  C   LIG     1      26.717  24.079  25.660  1.00  0.00     0.006 C 
HETATM    8  C   LIG     1      26.247  24.750  26.949  1.00  0.00     0.013 C 
HETATM    9  C   LIG     1      27.561  25.238  27.585  1.00  0.00     0.079 C 
HETATM   10  C   LIG     1      28.617  24.395  26.930  1.00  0.00     0.135 C 
HETATM   11  O   LIG     1      29.807  24.490  27.187  1.00  0.00    -0.297 OA
HETATM   12  C   LIG     1      26.530  22.351  23.774  1.00  0.00     0.002 C 
HETATM   13  C   LIG     1      27.921  22.947  23.413  1.00  0.00     0.007 C 
HETATM   14  C   LIG     1      28.836  23.154  24.664  1.00  0.00     0.018 C 
HETATM   15  C   LIG     1      28.043  23.380  25.989  1.00  0.00     0.021 C 
HETATM   16  C   LIG     1      27.907  22.067  26.809  1.00  0.00     0.024 C 
HETATM   17  C   LIG     1      23.097  21.919  22.333  1.00  0.00     0.053 C 
HETATM   18  C   LIG     1      23.215  22.410  20.951  1.00  0.00     0.149 C 
HETATM   19  C   LIG     1      24.548  22.776  20.369  1.00  0.00     0.084 C 
HETATM   20  C   LIG     1      25.588  23.048  21.466  1.00  0.00     0.022 C 
HETATM   21  O   LIG     1      22.181  22.505  20.239  1.00  0.00    -0.293 OA
ENDROOT
TORSDOF 0
ENDMDL
MODEL 17
REMARK VINA RESULT:      -4.8     12.491     15.160
REMARK  0 active torsions:
REMARK  status: ('A' for Active; 'I' for Inactive)
ROOT
HETATM    1  C   LIG     1      25.248  18.998  24.925  1.00  0.00     0.020 C 
HETATM    2  C   LIG     1      24.043  19.736  24.292  1.00  0.00    -0.016 C 
HETATM    3  C   LIG     1      23.980  21.153  24.889  1.00  0.00    -0.068 C 
HETATM    4  C   LIG     1      24.645  22.294  24.132  1.00  0.00     0.035 C 
HETATM    5  C   LIG     1      24.135  22.404  22.670  1.00  0.00     0.010 C 
HETATM    6  C   LIG     1      23.476  21.096  22.184  1.00  0.00    -0.004 C 
HETATM    7  C   LIG     1      23.242  20.968  20.661  1.00  0.00     0.006 C 
HETATM    8  C   LIG     1      22.843  22.173  19.811  1.00  0.00     0.013 C 
HETATM    9  C   LIG     1      22.942  21.631  18.374  1.00  0.00     0.079 C 
HETATM   10  C   LIG     1      23.838  20.434  18.498  1.00  0.00     0.135 C 
HETATM   11  O   LIG     1      24.160  19.734  17.549  1.00  0.00    -0.297 OA
HETATM   12  C   LIG     1      24.263  19.865  22.739  1.00  0.00     0.002 C 
HETATM   13  C   LIG     1      24.012  18.585  21.889  1.00  0.00     0.007 C 
HETATM   14  C   LIG     1      24.423  18.761  20.391  1.00  0.00     0.018 C 
HETATM   15  C   LIG     1      24.352  20.239  19.892  1.00  0.00     0.021 C 
HETATM   16  C   LIG     1      25.743  20.928  19.934  1.00  0.00     0.024 C 
HETATM   17  C   LIG     1      23.292  21.409  26.013  1.00  0.00     0.053 C 
HETATM   18  C   LIG     1      22.497  20.369  26.687  1.00  0.00     0.149 C 
HETATM   19  C   LIG     1      22.380  18.987  26.114  1.00  0.00     0.084 C 
HETATM   20  C   LIG     1      22.726  18.967  24.617  1.00  0.00     0.022 C 
HETATM   21  O   LIG     1      21.921  20.639  27.773  1.00  0.00    -0.293 OA
ENDROOT
TORSDOF 0
ENDMDL
MODEL 18
REMARK VINA RESULT:      -4.7      7.760     11.171
REMARK  0 active torsions:
REMARK  status: ('A' for Active; 'I' for Inactive)
ROOT
HETATM    1  C   LIG     1      27.692  22.020  27.916  1.00  0.00     0.020 C 
HETATM    2  C   LIG     1      26.919  22.994  26.992  1.00  0.00    -0.016 C 
HETATM    3  C   LIG     1      27.947  23.798  26.176  1.00  0.00    -0.068 C 
HETATM    4  C   LIG     1      28.318  23.308  24.785  1.00  0.00     0.035 C 
HETATM    5  C   LIG     1      27.073  23.124  23.875  1.00  0.00     0.010 C 
HETATM    6  C   LIG     1      25.769  23.004  24.692  1.00  0.00    -0.004 C 
HETATM    7  C   LIG     1      24.527  22.483  23.933  1.00  0.00     0.006 C 
HETATM    8  C   LIG     1      24.269  22.854  22.474  1.00  0.00     0.013 C 
HETATM    9  C   LIG     1      23.083  21.952  22.091  1.00  0.00     0.079 C 
HETATM   10  C   LIG     1      23.120  20.850  23.110  1.00  0.00     0.135 C 
HETATM   11  O   LIG     1      22.323  19.925  23.128  1.00  0.00    -0.297 OA
HETATM   12  C   LIG     1      26.028  22.172  25.990  1.00  0.00     0.002 C 
HETATM   13  C   LIG     1      24.713  21.563  26.560  1.00  0.00     0.007 C 
HETATM   14  C   LIG     1      23.988  20.623  25.543  1.00  0.00     0.018 C 
HETATM   15  C   LIG     1      24.281  20.972  24.050  1.00  0.00     0.021 C 
HETATM   16  C   LIG     1      25.404  20.076  23.459  1.00  0.00     0.024 C 
HETATM   17  C   LIG     1      28.456  24.953  26.636  1.00  0.00     0.053 C 
HETATM   18  C   LIG     1      28.001  25.549  27.902  1.00  0.00     0.149 C 
HETATM   19  C   LIG     1      26.906  24.916  28.710  1.00  0.00     0.084 C 
HETATM   20  C   LIG     1      26.055  23.963  27.857  1.00  0.00     0.022 C 
HETATM   21  O   LIG     1      28.554  26.599  28.324  1.00  0.00    -0.293 OA
ENDROOT
TORSDOF 0
ENDMDL
MODEL 19
REMARK VINA RESULT:      -4.7     10.414     15.218
REMARK  0 active torsions:
REMARK  status: ('A' for Active; 'I' for Inactive)
ROOT
HETATM    1  C   LIG     1      26.891  21.138  19.445  1.00  0.00     0.020 C 
HETATM    2  C   LIG     1      25.740  21.705  20.312  1.00  0.00    -0.016 C 
HETATM    3  C   LIG     1      24.774  20.552  20.640  1.00  0.00    -0.068 C 
HETATM    4  C   LIG     1      24.946  19.808  21.955  1.00  0.00     0.035 C 
HETATM    5  C   LIG     1      24.928  20.764  23.178  1.00  0.00     0.010 C 
HETATM    6  C   LIG     1      25.228  22.224  22.778  1.00  0.00    -0.004 C 
HETATM    7  C   LIG     1      25.572  23.196  23.930  1.00  0.00     0.006 C 
HETATM    8  C   LIG     1      24.889  23.093  25.292  1.00  0.00     0.013 C 
HETATM    9  C   LIG     1      25.688  24.085  26.156  1.00  0.00     0.079 C 
HETATM   10  C   LIG     1      26.986  24.245  25.420  1.00  0.00     0.135 C 
HETATM   11  O   LIG     1      27.895  24.963  25.809  1.00  0.00    -0.297 OA
HETATM   12  C   LIG     1      26.324  22.258  21.664  1.00  0.00     0.002 C 
HETATM   13  C   LIG     1      27.045  23.636  21.602  1.00  0.00     0.007 C 
HETATM   14  C   LIG     1      27.741  24.018  22.950  1.00  0.00     0.018 C 
HETATM   15  C   LIG     1      27.072  23.373  24.204  1.00  0.00     0.021 C 
HETATM   16  C   LIG     1      27.814  22.085  24.654  1.00  0.00     0.024 C 
HETATM   17  C   LIG     1      23.748  20.248  19.829  1.00  0.00     0.053 C 
HETATM   18  C   LIG     1      23.445  21.047  18.631  1.00  0.00     0.149 C 
HETATM   19  C   LIG     1      24.242  22.273  18.293  1.00  0.00     0.084 C 
HETATM   20  C   LIG     1      24.986  22.818  19.521  1.00  0.00     0.022 C 
HETATM   21  O   LIG     1      22.512  20.685  17.866  1.00  0.00    -0.293 OA
ENDROOT
TORSDOF 0
ENDMDL
MODEL 20
REMARK VINA RESULT:      -4.7     10.642     14.224
REMARK  0 active torsions:
REMARK  status: ('A' for Active; 'I' for Inactive)
ROOT
HETATM    1  C   LIG     1      23.559  21.273  25.394  1.00  0.00     0.020 C 
HETATM    2  C   LIG     1      24.698  21.705  24.438  1.00  0.00    -0.016 C 
HETATM    3  C   LIG     1      25.903  20.778  24.678  1.00  0.00    -0.068 C 
HETATM    4  C   LIG     1      26.074  19.558  23.786  1.00  0.00     0.035 C 
HETATM    5  C   LIG     1      26.093  19.930  22.279  1.00  0.00     0.010 C 
HETATM    6  C   LIG     1      25.465  21.315  22.014  1.00  0.00    -0.004 C 
HETATM    7  C   LIG     1      25.118  21.644  20.544  1.00  0.00     0.006 C 
HETATM    8  C   LIG     1      26.004  21.175  19.392  1.00  0.00     0.013 C 
HETATM    9  C   LIG     1      25.170  21.528  18.147  1.00  0.00     0.079 C 
HETATM   10  C   LIG     1      23.769  21.656  18.673  1.00  0.00     0.135 C 
HETATM   11  O   LIG     1      22.810  21.927  17.968  1.00  0.00    -0.297 OA
HETATM   12  C   LIG     1      24.228  21.526  22.947  1.00  0.00     0.002 C 
HETATM   13  C   LIG     1      23.257  22.606  22.386  1.00  0.00     0.007 C 
HETATM   14  C   LIG     1      22.711  22.251  20.964  1.00  0.00     0.018 C 
HETATM   15  C   LIG     1      23.670  21.341  20.134  1.00  0.00     0.021 C 
HETATM   16  C   LIG     1      23.262  19.845  20.222  1.00  0.00     0.024 C 
HETATM   17  C   LIG     1      26.836  21.068  25.600  1.00  0.00     0.053 C 
HETATM   18  C   LIG     1      26.799  22.322  26.370  1.00  0.00     0.149 C 
HETATM   19  C   LIG     1      25.742  23.357  26.119  1.00  0.00     0.084 C 
HETATM   20  C   LIG     1      25.100  23.183  24.734  1.00  0.00     0.022 C 
HETATM   21  O   LIG     1      27.658  22.520  27.269  1.00  0.00    -0.293 OA
ENDROOT
TORSDOF 0
ENDMDL
