REMARK  2 active torsions:
REMARK  status: ('A' for Active; 'I' for Inactive)
REMARK       I    between atoms: C_2  and  N_3 
REMARK    1  A    between atoms: C_2  and  O_5 
REMARK    2  A    between atoms: O_5  and  C_6 
ROOT
HETATM    1  C   LIG     1      -0.066   1.121   0.333  1.00  0.00     0.092 A 
HETATM    2  C   LIG     1      -1.006   0.074   0.179  1.00  0.00     0.008 A 
HETATM    3  C   LIG     1      -0.689  -1.258   0.509  1.00  0.00     0.015 A 
HETATM    4  C   LIG     1      -1.635  -2.273   0.340  1.00  0.00     0.001 A 
HETATM    5  C   LIG     1      -2.908  -1.974  -0.147  1.00  0.00     0.001 A 
HETATM    6  C   LIG     1      -3.249  -0.657  -0.459  1.00  0.00     0.012 A 
HETATM    7  C   LIG     1      -2.311   0.374  -0.292  1.00  0.00    -0.023 A 
HETATM    8  C   LIG     1      -2.662   1.702  -0.578  1.00  0.00     0.012 A 
HETATM    9  C   LIG     1      -1.738   2.729  -0.388  1.00  0.00     0.004 A 
HETATM   10  C   LIG     1      -0.451   2.441   0.070  1.00  0.00     0.038 A 
ENDROOT
BRANCH   1  11
HETATM   11  O   LIG     1       1.247   0.885   0.757  1.00  0.00    -0.261 OA
BRANCH  11  12
HETATM   12  C   LIG     1       2.173   0.156   0.004  1.00  0.00     0.365 C 
HETATM   13  O   LIG     1       1.881  -0.245  -1.157  1.00  0.00    -0.238 OA
HETATM   14  N   LIG     1       3.462  -0.120   0.557  1.00  0.00    -0.341 N 
HETATM   15  C   LIG     1       4.469  -0.879  -0.174  1.00  0.00     0.151 C 
HETATM   16  H   LIG     1       3.686   0.229   1.516  1.00  0.00     0.164 HD
ENDBRANCH  11  12
ENDBRANCH   1  11
TORSDOF 2
