MODEL 1
REMARK VINA RESULT:      -8.7      0.000      0.000
REMARK  2 active torsions:
REMARK  status: ('A' for Active; 'I' for Inactive)
REMARK       I    between atoms: C_2  and  N_3 
REMARK    1  A    between atoms: C_2  and  O_5 
REMARK    2  A    between atoms: O_5  and  C_6 
ROOT
HETATM    1  C   LIG     1      16.690  37.310  22.537  1.00  0.00     0.092 A 
HETATM    2  C   LIG     1      17.660  37.669  21.571  1.00  0.00     0.008 A 
HETATM    3  C   LIG     1      18.455  38.823  21.715  1.00  0.00     0.015 A 
HETATM    4  C   LIG     1      19.400  39.157  20.741  1.00  0.00     0.001 A 
HETATM    5  C   LIG     1      19.574  38.343  19.621  1.00  0.00     0.001 A 
HETATM    6  C   LIG     1      18.812  37.184  19.471  1.00  0.00     0.012 A 
HETATM    7  C   LIG     1      17.860  36.833  20.442  1.00  0.00    -0.023 A 
HETATM    8  C   LIG     1      17.114  35.652  20.306  1.00  0.00     0.012 A 
HETATM    9  C   LIG     1      16.187  35.291  21.283  1.00  0.00     0.004 A 
HETATM   10  C   LIG     1      15.981  36.112  22.394  1.00  0.00     0.038 A 
ENDROOT
BRANCH   1  11
HETATM   11  O   LIG     1      16.420  38.112  23.653  1.00  0.00    -0.261 OA
BRANCH  11  12
HETATM   12  C   LIG     1      17.051  37.939  24.888  1.00  0.00     0.365 C 
HETATM   13  O   LIG     1      17.116  38.892  25.714  1.00  0.00    -0.238 OA
HETATM   14  N   LIG     1      17.613  36.665  25.215  1.00  0.00    -0.341 N 
HETATM   15  C   LIG     1      18.289  36.422  26.483  1.00  0.00     0.151 C 
HETATM   16  H   LIG     1      17.540  35.888  24.521  1.00  0.00     0.164 HD
ENDBRANCH  11  12
ENDBRANCH   1  11
TORSDOF 2
ENDMDL
MODEL 2
REMARK VINA RESULT:      -8.3      2.948      5.402
REMARK  2 active torsions:
REMARK  status: ('A' for Active; 'I' for Inactive)
REMARK       I    between atoms: C_2  and  N_3 
REMARK    1  A    between atoms: C_2  and  O_5 
REMARK    2  A    between atoms: O_5  and  C_6 
ROOT
HETATM    1  C   LIG     1      16.568  36.032  22.830  1.00  0.00     0.092 A 
HETATM    2  C   LIG     1      17.165  36.029  24.113  1.00  0.00     0.008 A 
HETATM    3  C   LIG     1      17.262  34.852  24.880  1.00  0.00     0.015 A 
HETATM    4  C   LIG     1      17.850  34.880  26.148  1.00  0.00     0.001 A 
HETATM    5  C   LIG     1      18.358  36.074  26.661  1.00  0.00     0.001 A 
HETATM    6  C   LIG     1      18.291  37.247  25.908  1.00  0.00     0.012 A 
HETATM    7  C   LIG     1      17.706  37.235  24.632  1.00  0.00    -0.023 A 
HETATM    8  C   LIG     1      17.665  38.407  23.862  1.00  0.00     0.012 A 
HETATM    9  C   LIG     1      17.106  38.388  22.584  1.00  0.00     0.004 A 
HETATM   10  C   LIG     1      16.567  37.208  22.070  1.00  0.00     0.038 A 
ENDROOT
BRANCH   1  11
HETATM   11  O   LIG     1      15.983  34.886  22.279  1.00  0.00    -0.261 OA
BRANCH  11  12
HETATM   12  C   LIG     1      16.036  34.582  20.915  1.00  0.00     0.365 C 
HETATM   13  O   LIG     1      16.753  35.267  20.133  1.00  0.00    -0.238 OA
HETATM   14  N   LIG     1      15.279  33.478  20.414  1.00  0.00    -0.341 N 
HETATM   15  C   LIG     1      15.287  33.113  19.003  1.00  0.00     0.151 C 
HETATM   16  H   LIG     1      14.699  32.919  21.080  1.00  0.00     0.164 HD
ENDBRANCH  11  12
ENDBRANCH   1  11
TORSDOF 2
ENDMDL
MODEL 3
REMARK VINA RESULT:      -8.3      2.931      4.365
REMARK  2 active torsions:
REMARK  status: ('A' for Active; 'I' for Inactive)
REMARK       I    between atoms: C_2  and  N_3 
REMARK    1  A    between atoms: C_2  and  O_5 
REMARK    2  A    between atoms: O_5  and  C_6 
ROOT
HETATM    1  C   LIG     1      16.910  36.254  21.561  1.00  0.00     0.092 A 
HETATM    2  C   LIG     1      17.838  37.153  20.983  1.00  0.00     0.008 A 
HETATM    3  C   LIG     1      18.728  36.747  19.970  1.00  0.00     0.015 A 
HETATM    4  C   LIG     1      19.639  37.655  19.422  1.00  0.00     0.001 A 
HETATM    5  C   LIG     1      19.667  38.977  19.866  1.00  0.00     0.001 A 
HETATM    6  C   LIG     1      18.778  39.405  20.854  1.00  0.00     0.012 A 
HETATM    7  C   LIG     1      17.855  38.506  21.411  1.00  0.00    -0.023 A 
HETATM    8  C   LIG     1      16.942  38.943  22.383  1.00  0.00     0.012 A 
HETATM    9  C   LIG     1      16.009  38.056  22.919  1.00  0.00     0.004 A 
HETATM   10  C   LIG     1      15.989  36.722  22.506  1.00  0.00     0.038 A 
ENDROOT
BRANCH   1  11
HETATM   11  O   LIG     1      16.868  34.900  21.208  1.00  0.00    -0.261 OA
BRANCH  11  12
HETATM   12  C   LIG     1      16.076  34.407  20.166  1.00  0.00     0.365 C 
HETATM   13  O   LIG     1      15.612  35.187  19.289  1.00  0.00    -0.238 OA
HETATM   14  N   LIG     1      15.806  33.004  20.097  1.00  0.00    -0.341 N 
HETATM   15  C   LIG     1      14.983  32.429  19.040  1.00  0.00     0.151 C 
HETATM   16  H   LIG     1      16.207  32.375  20.828  1.00  0.00     0.164 HD
ENDBRANCH  11  12
ENDBRANCH   1  11
TORSDOF 2
ENDMDL
MODEL 4
REMARK VINA RESULT:      -7.9      0.684      2.792
REMARK  2 active torsions:
REMARK  status: ('A' for Active; 'I' for Inactive)
REMARK       I    between atoms: C_2  and  N_3 
REMARK    1  A    between atoms: C_2  and  O_5 
REMARK    2  A    between atoms: O_5  and  C_6 
ROOT
HETATM    1  C   LIG     1      17.339  38.330  22.657  1.00  0.00     0.092 A 
HETATM    2  C   LIG     1      16.905  37.256  21.843  1.00  0.00     0.008 A 
HETATM    3  C   LIG     1      15.780  36.480  22.182  1.00  0.00     0.015 A 
HETATM    4  C   LIG     1      15.379  35.421  21.363  1.00  0.00     0.001 A 
HETATM    5  C   LIG     1      16.083  35.129  20.194  1.00  0.00     0.001 A 
HETATM    6  C   LIG     1      17.188  35.901  19.829  1.00  0.00     0.012 A 
HETATM    7  C   LIG     1      17.602  36.970  20.639  1.00  0.00    -0.023 A 
HETATM    8  C   LIG     1      18.694  37.764  20.259  1.00  0.00     0.012 A 
HETATM    9  C   LIG     1      19.089  38.841  21.051  1.00  0.00     0.004 A 
HETATM   10  C   LIG     1      18.412  39.126  22.239  1.00  0.00     0.038 A 
ENDROOT
BRANCH   1  11
HETATM   11  O   LIG     1      16.719  38.639  23.873  1.00  0.00    -0.261 OA
BRANCH  11  12
HETATM   12  C   LIG     1      17.218  38.224  25.112  1.00  0.00     0.365 C 
HETATM   13  O   LIG     1      17.159  38.989  26.115  1.00  0.00    -0.238 OA
HETATM   14  N   LIG     1      17.784  36.918  25.236  1.00  0.00    -0.341 N 
HETATM   15  C   LIG     1      18.325  36.428  26.497  1.00  0.00     0.151 C 
HETATM   16  H   LIG     1      17.814  36.298  24.395  1.00  0.00     0.164 HD
ENDBRANCH  11  12
ENDBRANCH   1  11
TORSDOF 2
ENDMDL
MODEL 5
REMARK VINA RESULT:      -7.7      2.139      4.548
REMARK  2 active torsions:
REMARK  status: ('A' for Active; 'I' for Inactive)
REMARK       I    between atoms: C_2  and  N_3 
REMARK    1  A    between atoms: C_2  and  O_5 
REMARK    2  A    between atoms: O_5  and  C_6 
ROOT
HETATM    1  C   LIG     1      17.195  37.313  22.650  1.00  0.00     0.092 A 
HETATM    2  C   LIG     1      17.486  36.815  23.942  1.00  0.00     0.008 A 
HETATM    3  C   LIG     1      18.032  37.638  24.946  1.00  0.00     0.015 A 
HETATM    4  C   LIG     1      18.316  37.117  26.211  1.00  0.00     0.001 A 
HETATM    5  C   LIG     1      18.051  35.777  26.496  1.00  0.00     0.001 A 
HETATM    6  C   LIG     1      17.489  34.950  25.522  1.00  0.00     0.012 A 
HETATM    7  C   LIG     1      17.195  35.459  24.247  1.00  0.00    -0.023 A 
HETATM    8  C   LIG     1      16.605  34.636  23.276  1.00  0.00     0.012 A 
HETATM    9  C   LIG     1      16.290  35.149  22.018  1.00  0.00     0.004 A 
HETATM   10  C   LIG     1      16.577  36.480  21.710  1.00  0.00     0.038 A 
ENDROOT
BRANCH   1  11
HETATM   11  O   LIG     1      17.492  38.629  22.276  1.00  0.00    -0.261 OA
BRANCH  11  12
HETATM   12  C   LIG     1      18.668  38.986  21.609  1.00  0.00     0.365 C 
HETATM   13  O   LIG     1      19.675  39.388  22.256  1.00  0.00    -0.238 OA
HETATM   14  N   LIG     1      18.725  38.878  20.185  1.00  0.00    -0.341 N 
HETATM   15  C   LIG     1      19.918  39.240  19.430  1.00  0.00     0.151 C 
HETATM   16  H   LIG     1      17.883  38.535  19.670  1.00  0.00     0.164 HD
ENDBRANCH  11  12
ENDBRANCH   1  11
TORSDOF 2
ENDMDL
MODEL 6
REMARK VINA RESULT:      -7.4      8.365     10.597
REMARK  2 active torsions:
REMARK  status: ('A' for Active; 'I' for Inactive)
REMARK       I    between atoms: C_2  and  N_3 
REMARK    1  A    between atoms: C_2  and  O_5 
REMARK    2  A    between atoms: O_5  and  C_6 
ROOT
HETATM    1  C   LIG     1      16.263  32.446  15.304  1.00  0.00     0.092 A 
HETATM    2  C   LIG     1      15.327  31.419  15.029  1.00  0.00     0.008 A 
HETATM    3  C   LIG     1      15.577  30.432  14.057  1.00  0.00     0.015 A 
HETATM    4  C   LIG     1      14.632  29.434  13.802  1.00  0.00     0.001 A 
HETATM    5  C   LIG     1      13.435  29.401  14.518  1.00  0.00     0.001 A 
HETATM    6  C   LIG     1      13.177  30.357  15.501  1.00  0.00     0.012 A 
HETATM    7  C   LIG     1      14.118  31.364  15.771  1.00  0.00    -0.023 A 
HETATM    8  C   LIG     1      13.873  32.308  16.779  1.00  0.00     0.012 A 
HETATM    9  C   LIG     1      14.819  33.293  17.064  1.00  0.00     0.004 A 
HETATM   10  C   LIG     1      16.008  33.357  16.335  1.00  0.00     0.038 A 
ENDROOT
BRANCH   1  11
HETATM   11  O   LIG     1      17.455  32.577  14.582  1.00  0.00    -0.261 OA
BRANCH  11  12
HETATM   12  C   LIG     1      17.717  33.654  13.729  1.00  0.00     0.365 C 
HETATM   13  O   LIG     1      17.538  34.840  14.122  1.00  0.00    -0.238 OA
HETATM   14  N   LIG     1      18.203  33.399  12.409  1.00  0.00    -0.341 N 
HETATM   15  C   LIG     1      18.490  34.476  11.471  1.00  0.00     0.151 C 
HETATM   16  H   LIG     1      18.353  32.409  12.108  1.00  0.00     0.164 HD
ENDBRANCH  11  12
ENDBRANCH   1  11
TORSDOF 2
ENDMDL
MODEL 7
REMARK VINA RESULT:      -7.3      8.263     10.288
REMARK  2 active torsions:
REMARK  status: ('A' for Active; 'I' for Inactive)
REMARK       I    between atoms: C_2  and  N_3 
REMARK    1  A    between atoms: C_2  and  O_5 
REMARK    2  A    between atoms: O_5  and  C_6 
ROOT
HETATM    1  C   LIG     1      16.283  32.617  14.495  1.00  0.00     0.092 A 
HETATM    2  C   LIG     1      15.474  32.277  15.606  1.00  0.00     0.008 A 
HETATM    3  C   LIG     1      15.454  33.063  16.774  1.00  0.00     0.015 A 
HETATM    4  C   LIG     1      14.650  32.699  17.858  1.00  0.00     0.001 A 
HETATM    5  C   LIG     1      13.851  31.558  17.789  1.00  0.00     0.001 A 
HETATM    6  C   LIG     1      13.840  30.777  16.632  1.00  0.00     0.012 A 
HETATM    7  C   LIG     1      14.639  31.131  15.533  1.00  0.00    -0.023 A 
HETATM    8  C   LIG     1      14.606  30.363  14.360  1.00  0.00     0.012 A 
HETATM    9  C   LIG     1      15.381  30.729  13.260  1.00  0.00     0.004 A 
HETATM   10  C   LIG     1      16.209  31.852  13.325  1.00  0.00     0.038 A 
ENDROOT
BRANCH   1  11
HETATM   11  O   LIG     1      17.155  33.711  14.518  1.00  0.00    -0.261 OA
BRANCH  11  12
HETATM   12  C   LIG     1      17.862  34.148  13.393  1.00  0.00     0.365 C 
HETATM   13  O   LIG     1      17.353  34.991  12.603  1.00  0.00    -0.238 OA
HETATM   14  N   LIG     1      19.176  33.639  13.152  1.00  0.00    -0.341 N 
HETATM   15  C   LIG     1      19.962  34.049  11.995  1.00  0.00     0.151 C 
HETATM   16  H   LIG     1      19.582  32.948  13.823  1.00  0.00     0.164 HD
ENDBRANCH  11  12
ENDBRANCH   1  11
TORSDOF 2
ENDMDL
MODEL 8
REMARK VINA RESULT:      -7.1      6.801      8.771
REMARK  2 active torsions:
REMARK  status: ('A' for Active; 'I' for Inactive)
REMARK       I    between atoms: C_2  and  N_3 
REMARK    1  A    between atoms: C_2  and  O_5 
REMARK    2  A    between atoms: O_5  and  C_6 
ROOT
HETATM    1  C   LIG     1      15.302  32.887  16.365  1.00  0.00     0.092 A 
HETATM    2  C   LIG     1      14.863  31.759  15.632  1.00  0.00     0.008 A 
HETATM    3  C   LIG     1      13.736  31.013  16.028  1.00  0.00     0.015 A 
HETATM    4  C   LIG     1      13.330  29.898  15.289  1.00  0.00     0.001 A 
HETATM    5  C   LIG     1      14.031  29.520  14.144  1.00  0.00     0.001 A 
HETATM    6  C   LIG     1      15.138  30.259  13.722  1.00  0.00     0.012 A 
HETATM    7  C   LIG     1      15.557  31.383  14.452  1.00  0.00    -0.023 A 
HETATM    8  C   LIG     1      16.651  32.143  14.013  1.00  0.00     0.012 A 
HETATM    9  C   LIG     1      17.051  33.273  14.724  1.00  0.00     0.004 A 
HETATM   10  C   LIG     1      16.378  33.646  15.888  1.00  0.00     0.038 A 
ENDROOT
BRANCH   1  11
HETATM   11  O   LIG     1      14.684  33.287  17.556  1.00  0.00    -0.261 OA
BRANCH  11  12
HETATM   12  C   LIG     1      15.328  33.257  18.797  1.00  0.00     0.365 C 
HETATM   13  O   LIG     1      15.786  32.173  19.255  1.00  0.00    -0.238 OA
HETATM   14  N   LIG     1      15.476  34.470  19.538  1.00  0.00    -0.341 N 
HETATM   15  C   LIG     1      16.131  34.505  20.839  1.00  0.00     0.151 C 
HETATM   16  H   LIG     1      15.097  35.357  19.136  1.00  0.00     0.164 HD
ENDBRANCH  11  12
ENDBRANCH   1  11
TORSDOF 2
ENDMDL
MODEL 9
REMARK VINA RESULT:      -7.0      6.403      7.959
REMARK  2 active torsions:
REMARK  status: ('A' for Active; 'I' for Inactive)
REMARK       I    between atoms: C_2  and  N_3 
REMARK    1  A    between atoms: C_2  and  O_5 
REMARK    2  A    between atoms: O_5  and  C_6 
ROOT
HETATM    1  C   LIG     1      14.936  32.642  16.966  1.00  0.00     0.092 A 
HETATM    2  C   LIG     1      15.523  32.433  15.695  1.00  0.00     0.008 A 
HETATM    3  C   LIG     1      16.607  33.211  15.245  1.00  0.00     0.015 A 
HETATM    4  C   LIG     1      17.163  32.987  13.982  1.00  0.00     0.001 A 
HETATM    5  C   LIG     1      16.655  31.982  13.159  1.00  0.00     0.001 A 
HETATM    6  C   LIG     1      15.595  31.185  13.595  1.00  0.00     0.012 A 
HETATM    7  C   LIG     1      15.029  31.395  14.862  1.00  0.00    -0.023 A 
HETATM    8  C   LIG     1      13.982  30.577  15.313  1.00  0.00     0.012 A 
HETATM    9  C   LIG     1      13.436  30.770  16.581  1.00  0.00     0.004 A 
HETATM   10  C   LIG     1      13.914  31.791  17.404  1.00  0.00     0.038 A 
ENDROOT
BRANCH   1  11
HETATM   11  O   LIG     1      15.353  33.672  17.817  1.00  0.00    -0.261 OA
BRANCH  11  12
HETATM   12  C   LIG     1      15.481  33.513  19.201  1.00  0.00     0.365 C 
HETATM   13  O   LIG     1      15.885  32.420  19.686  1.00  0.00    -0.238 OA
HETATM   14  N   LIG     1      15.161  34.608  20.063  1.00  0.00    -0.341 N 
HETATM   15  C   LIG     1      15.268  34.506  21.513  1.00  0.00     0.151 C 
HETATM   16  H   LIG     1      14.837  35.507  19.640  1.00  0.00     0.164 HD
ENDBRANCH  11  12
ENDBRANCH   1  11
TORSDOF 2
ENDMDL
MODEL 10
REMARK VINA RESULT:      -6.8      2.923      5.000
REMARK  2 active torsions:
REMARK  status: ('A' for Active; 'I' for Inactive)
REMARK       I    between atoms: C_2  and  N_3 
REMARK    1  A    between atoms: C_2  and  O_5 
REMARK    2  A    between atoms: O_5  and  C_6 
ROOT
HETATM    1  C   LIG     1      17.283  36.038  20.840  1.00  0.00     0.092 A 
HETATM    2  C   LIG     1      17.304  36.982  21.894  1.00  0.00     0.008 A 
HETATM    3  C   LIG     1      16.645  36.741  23.115  1.00  0.00     0.015 A 
HETATM    4  C   LIG     1      16.676  37.694  24.137  1.00  0.00     0.001 A 
HETATM    5  C   LIG     1      17.371  38.891  23.960  1.00  0.00     0.001 A 
HETATM    6  C   LIG     1      18.049  39.140  22.766  1.00  0.00     0.012 A 
HETATM    7  C   LIG     1      18.030  38.191  21.732  1.00  0.00    -0.023 A 
HETATM    8  C   LIG     1      18.735  38.428  20.542  1.00  0.00     0.012 A 
HETATM    9  C   LIG     1      18.736  37.474  19.525  1.00  0.00     0.004 A 
HETATM   10  C   LIG     1      18.020  36.284  19.676  1.00  0.00     0.038 A 
ENDROOT
BRANCH   1  11
HETATM   11  O   LIG     1      16.556  34.845  20.924  1.00  0.00    -0.261 OA
BRANCH  11  12
HETATM   12  C   LIG     1      15.896  34.274  19.832  1.00  0.00     0.365 C 
HETATM   13  O   LIG     1      15.534  34.990  18.856  1.00  0.00    -0.238 OA
HETATM   14  N   LIG     1      15.645  32.867  19.822  1.00  0.00    -0.341 N 
HETATM   15  C   LIG     1      14.956  32.213  18.717  1.00  0.00     0.151 C 
HETATM   16  H   LIG     1      15.960  32.292  20.636  1.00  0.00     0.164 HD
ENDBRANCH  11  12
ENDBRANCH   1  11
TORSDOF 2
ENDMDL
MODEL 11
REMARK VINA RESULT:      -6.8      7.111      8.552
REMARK  2 active torsions:
REMARK  status: ('A' for Active; 'I' for Inactive)
REMARK       I    between atoms: C_2  and  N_3 
REMARK    1  A    between atoms: C_2  and  O_5 
REMARK    2  A    between atoms: O_5  and  C_6 
ROOT
HETATM    1  C   LIG     1      14.655  32.022  16.015  1.00  0.00     0.092 A 
HETATM    2  C   LIG     1      15.691  32.507  15.183  1.00  0.00     0.008 A 
HETATM    3  C   LIG     1      16.432  33.656  15.519  1.00  0.00     0.015 A 
HETATM    4  C   LIG     1      17.446  34.117  14.674  1.00  0.00     0.001 A 
HETATM    5  C   LIG     1      17.742  33.434  13.493  1.00  0.00     0.001 A 
HETATM    6  C   LIG     1      17.034  32.280  13.153  1.00  0.00     0.012 A 
HETATM    7  C   LIG     1      16.015  31.804  13.993  1.00  0.00    -0.023 A 
HETATM    8  C   LIG     1      15.322  30.628  13.666  1.00  0.00     0.012 A 
HETATM    9  C   LIG     1      14.328  30.141  14.513  1.00  0.00     0.004 A 
HETATM   10  C   LIG     1      14.000  30.830  15.683  1.00  0.00     0.038 A 
ENDROOT
BRANCH   1  11
HETATM   11  O   LIG     1      14.263  32.690  17.181  1.00  0.00    -0.261 OA
BRANCH  11  12
HETATM   12  C   LIG     1      14.807  32.412  18.440  1.00  0.00     0.365 C 
HETATM   13  O   LIG     1      15.704  33.154  18.928  1.00  0.00    -0.238 OA
HETATM   14  N   LIG     1      14.326  31.284  19.175  1.00  0.00    -0.341 N 
HETATM   15  C   LIG     1      14.855  30.938  20.489  1.00  0.00     0.151 C 
HETATM   16  H   LIG     1      13.577  30.689  18.756  1.00  0.00     0.164 HD
ENDBRANCH  11  12
ENDBRANCH   1  11
TORSDOF 2
ENDMDL
MODEL 12
REMARK VINA RESULT:      -6.7      3.088      4.930
REMARK  2 active torsions:
REMARK  status: ('A' for Active; 'I' for Inactive)
REMARK       I    between atoms: C_2  and  N_3 
REMARK    1  A    between atoms: C_2  and  O_5 
REMARK    2  A    between atoms: O_5  and  C_6 
ROOT
HETATM    1  C   LIG     1      18.063  37.043  20.501  1.00  0.00     0.092 A 
HETATM    2  C   LIG     1      17.745  37.415  21.829  1.00  0.00     0.008 A 
HETATM    3  C   LIG     1      18.428  38.455  22.490  1.00  0.00     0.015 A 
HETATM    4  C   LIG     1      18.097  38.796  23.804  1.00  0.00     0.001 A 
HETATM    5  C   LIG     1      17.077  38.118  24.471  1.00  0.00     0.001 A 
HETATM    6  C   LIG     1      16.372  37.099  23.827  1.00  0.00     0.012 A 
HETATM    7  C   LIG     1      16.691  36.747  22.506  1.00  0.00    -0.023 A 
HETATM    8  C   LIG     1      15.965  35.743  21.848  1.00  0.00     0.012 A 
HETATM    9  C   LIG     1      16.265  35.410  20.527  1.00  0.00     0.004 A 
HETATM   10  C   LIG     1      17.303  36.060  19.857  1.00  0.00     0.038 A 
ENDROOT
BRANCH   1  11
HETATM   11  O   LIG     1      19.115  37.638  19.794  1.00  0.00    -0.261 OA
BRANCH  11  12
HETATM   12  C   LIG     1      18.955  38.786  19.011  1.00  0.00     0.365 C 
HETATM   13  O   LIG     1      19.056  39.933  19.527  1.00  0.00    -0.238 OA
HETATM   14  N   LIG     1      18.688  38.647  17.613  1.00  0.00    -0.341 N 
HETATM   15  C   LIG     1      18.506  39.803  16.744  1.00  0.00     0.151 C 
HETATM   16  H   LIG     1      18.617  37.688  17.205  1.00  0.00     0.164 HD
ENDBRANCH  11  12
ENDBRANCH   1  11
TORSDOF 2
ENDMDL
MODEL 13
REMARK VINA RESULT:      -6.5      8.741     10.601
REMARK  2 active torsions:
REMARK  status: ('A' for Active; 'I' for Inactive)
REMARK       I    between atoms: C_2  and  N_3 
REMARK    1  A    between atoms: C_2  and  O_5 
REMARK    2  A    between atoms: O_5  and  C_6 
ROOT
HETATM    1  C   LIG     1      16.248  31.463  14.531  1.00  0.00     0.092 A 
HETATM    2  C   LIG     1      15.157  31.594  15.423  1.00  0.00     0.008 A 
HETATM    3  C   LIG     1      15.120  32.607  16.401  1.00  0.00     0.015 A 
HETATM    4  C   LIG     1      14.034  32.709  17.274  1.00  0.00     0.001 A 
HETATM    5  C   LIG     1      12.968  31.814  17.177  1.00  0.00     0.001 A 
HETATM    6  C   LIG     1      12.975  30.816  16.201  1.00  0.00     0.012 A 
HETATM    7  C   LIG     1      14.058  30.703  15.315  1.00  0.00    -0.023 A 
HETATM    8  C   LIG     1      14.053  29.719  14.315  1.00  0.00     0.012 A 
HETATM    9  C   LIG     1      15.117  29.623  13.419  1.00  0.00     0.004 A 
HETATM   10  C   LIG     1      16.204  30.492  13.523  1.00  0.00     0.038 A 
ENDROOT
BRANCH   1  11
HETATM   11  O   LIG     1      17.377  32.286  14.610  1.00  0.00    -0.261 OA
BRANCH  11  12
HETATM   12  C   LIG     1      17.538  33.439  13.835  1.00  0.00     0.365 C 
HETATM   13  O   LIG     1      17.205  34.569  14.291  1.00  0.00    -0.238 OA
HETATM   14  N   LIG     1      18.096  33.329  12.524  1.00  0.00    -0.341 N 
HETATM   15  C   LIG     1      18.284  34.491  11.665  1.00  0.00     0.151 C 
HETATM   16  H   LIG     1      18.373  32.385  12.170  1.00  0.00     0.164 HD
ENDBRANCH  11  12
ENDBRANCH   1  11
TORSDOF 2
ENDMDL
MODEL 14
REMARK VINA RESULT:      -6.3      2.727      4.455
REMARK  2 active torsions:
REMARK  status: ('A' for Active; 'I' for Inactive)
REMARK       I    between atoms: C_2  and  N_3 
REMARK    1  A    between atoms: C_2  and  O_5 
REMARK    2  A    between atoms: O_5  and  C_6 
ROOT
HETATM    1  C   LIG     1      17.186  35.462  22.897  1.00  0.00     0.092 A 
HETATM    2  C   LIG     1      17.538  36.793  22.569  1.00  0.00     0.008 A 
HETATM    3  C   LIG     1      17.641  37.222  21.232  1.00  0.00     0.015 A 
HETATM    4  C   LIG     1      17.997  38.541  20.938  1.00  0.00     0.001 A 
HETATM    5  C   LIG     1      18.243  39.450  21.968  1.00  0.00     0.001 A 
HETATM    6  C   LIG     1      18.124  39.050  23.300  1.00  0.00     0.012 A 
HETATM    7  C   LIG     1      17.765  37.730  23.612  1.00  0.00    -0.023 A 
HETATM    8  C   LIG     1      17.617  37.335  24.950  1.00  0.00     0.012 A 
HETATM    9  C   LIG     1      17.235  36.030  25.259  1.00  0.00     0.004 A 
HETATM   10  C   LIG     1      17.016  35.101  24.239  1.00  0.00     0.038 A 
ENDROOT
BRANCH   1  11
HETATM   11  O   LIG     1      16.987  34.482  21.917  1.00  0.00    -0.261 OA
BRANCH  11  12
HETATM   12  C   LIG     1      15.894  34.487  21.044  1.00  0.00     0.365 C 
HETATM   13  O   LIG     1      14.716  34.416  21.493  1.00  0.00    -0.238 OA
HETATM   14  N   LIG     1      16.123  34.588  19.637  1.00  0.00    -0.341 N 
HETATM   15  C   LIG     1      15.028  34.592  18.675  1.00  0.00     0.151 C 
HETATM   16  H   LIG     1      17.105  34.654  19.288  1.00  0.00     0.164 HD
ENDBRANCH  11  12
ENDBRANCH   1  11
TORSDOF 2
ENDMDL
MODEL 15
REMARK VINA RESULT:      -6.3      9.257     11.092
REMARK  2 active torsions:
REMARK  status: ('A' for Active; 'I' for Inactive)
REMARK       I    between atoms: C_2  and  N_3 
REMARK    1  A    between atoms: C_2  and  O_5 
REMARK    2  A    between atoms: O_5  and  C_6 
ROOT
HETATM    1  C   LIG     1      14.032  30.750  15.100  1.00  0.00     0.092 A 
HETATM    2  C   LIG     1      15.138  31.595  14.842  1.00  0.00     0.008 A 
HETATM    3  C   LIG     1      15.700  31.703  13.556  1.00  0.00     0.015 A 
HETATM    4  C   LIG     1      16.797  32.541  13.332  1.00  0.00     0.001 A 
HETATM    5  C   LIG     1      17.338  33.286  14.380  1.00  0.00     0.001 A 
HETATM    6  C   LIG     1      16.781  33.209  15.657  1.00  0.00     0.012 A 
HETATM    7  C   LIG     1      15.678  32.375  15.898  1.00  0.00    -0.023 A 
HETATM    8  C   LIG     1      15.099  32.319  17.175  1.00  0.00     0.012 A 
HETATM    9  C   LIG     1      13.988  31.510  17.407  1.00  0.00     0.004 A 
HETATM   10  C   LIG     1      13.454  30.735  16.375  1.00  0.00     0.038 A 
ENDROOT
BRANCH   1  11
HETATM   11  O   LIG     1      13.478  29.928  14.112  1.00  0.00    -0.261 OA
BRANCH  11  12
HETATM   12  C   LIG     1      13.930  28.629  13.857  1.00  0.00     0.365 C 
HETATM   13  O   LIG     1      13.211  27.632  14.146  1.00  0.00    -0.238 OA
HETATM   14  N   LIG     1      15.212  28.440  13.254  1.00  0.00    -0.341 N 
HETATM   15  C   LIG     1      15.743  27.113  12.968  1.00  0.00     0.151 C 
HETATM   16  H   LIG     1      15.787  29.279  13.015  1.00  0.00     0.164 HD
ENDBRANCH  11  12
ENDBRANCH   1  11
TORSDOF 2
ENDMDL
MODEL 16
REMARK VINA RESULT:      -5.9      9.259     11.411
REMARK  2 active torsions:
REMARK  status: ('A' for Active; 'I' for Inactive)
REMARK       I    between atoms: C_2  and  N_3 
REMARK    1  A    between atoms: C_2  and  O_5 
REMARK    2  A    between atoms: O_5  and  C_6 
ROOT
HETATM    1  C   LIG     1      15.216  30.876  15.009  1.00  0.00     0.092 A 
HETATM    2  C   LIG     1      14.773  29.666  14.424  1.00  0.00     0.008 A 
HETATM    3  C   LIG     1      15.629  28.864  13.645  1.00  0.00     0.015 A 
HETATM    4  C   LIG     1      15.162  27.677  13.073  1.00  0.00     0.001 A 
HETATM    5  C   LIG     1      13.844  27.269  13.279  1.00  0.00     0.001 A 
HETATM    6  C   LIG     1      12.985  28.038  14.066  1.00  0.00     0.012 A 
HETATM    7  C   LIG     1      13.440  29.231  14.649  1.00  0.00    -0.023 A 
HETATM    8  C   LIG     1      12.586  29.990  15.464  1.00  0.00     0.012 A 
HETATM    9  C   LIG     1      13.047  31.162  16.064  1.00  0.00     0.004 A 
HETATM   10  C   LIG     1      14.354  31.598  15.842  1.00  0.00     0.038 A 
ENDROOT
BRANCH   1  11
HETATM   11  O   LIG     1      16.505  31.377  14.794  1.00  0.00    -0.261 OA
BRANCH  11  12
HETATM   12  C   LIG     1      16.754  32.683  14.361  1.00  0.00     0.365 C 
HETATM   13  O   LIG     1      16.519  33.018  13.167  1.00  0.00    -0.238 OA
HETATM   14  N   LIG     1      17.266  33.642  15.290  1.00  0.00    -0.341 N 
HETATM   15  C   LIG     1      17.552  35.018  14.900  1.00  0.00     0.151 C 
HETATM   16  H   LIG     1      17.445  33.346  16.275  1.00  0.00     0.164 HD
ENDBRANCH  11  12
ENDBRANCH   1  11
TORSDOF 2
ENDMDL
