REMARK  6 active torsions:
REMARK  status: ('A' for Active; 'I' for Inactive)
REMARK    1  A    between atoms: O_1  and  C_2 
REMARK    2  A    between atoms: C_2  and  CA_3 
REMARK    3  A    between atoms: CA_3  and  CB_5 
REMARK    4  A    between atoms: CA_3  and  N_4 
REMARK    5  A    between atoms: CB_5  and  CG_6 
REMARK    6  A    between atoms: CG_6  and  SD_7 
ROOT
ATOM      1  CA  MET A   1       1.208   0.540   0.233  1.00  0.00     0.315 C 
ENDROOT
BRANCH   1   2
ATOM      2  C   MET A   1       2.685   0.409   0.518  1.00  0.00     0.173 C 
ATOM      3  OXT MET A   1       3.404  -0.337  -0.199  1.00  0.00    -0.648 OA
BRANCH   2   4
ATOM      4  O   MET A   1       3.271   1.109   1.569  1.00  0.00    -0.775 OA
ATOM      5  H   MET A   1       2.727   1.720   2.167  1.00  0.00     0.167 HD
ENDBRANCH   2   4
ENDBRANCH   1   2
BRANCH   1   6
ATOM      6  CB  MET A   1       0.514  -0.834   0.355  1.00  0.00     0.056 C 
BRANCH   6   7
ATOM      7  CG  MET A   1      -1.018  -0.742   0.326  1.00  0.00     0.076 C 
BRANCH   7   8
ATOM      8  SD  MET A   1      -1.644  -0.545  -1.380  1.00  0.00    -0.173 SA
ATOM      9  CE  MET A   1      -3.396  -0.477  -0.889  1.00  0.00     0.089 C 
ENDBRANCH   7   8
ENDBRANCH   6   7
ENDBRANCH   1   6
BRANCH   1  10
ATOM     10  N   MET A   1       0.993   1.119  -1.095  1.00  0.00     0.093 N 
ATOM     11  H1  MET A   1       1.438   2.065  -1.125  1.00  0.00     0.314 HD
ATOM     12  H2  MET A   1       1.465   0.527  -1.817  1.00  0.00     0.314 HD
ENDBRANCH   1  10
TORSDOF 6
