MODEL 1
REMARK VINA RESULT:      -4.6      0.000      0.000
REMARK  6 active torsions:
REMARK  status: ('A' for Active; 'I' for Inactive)
REMARK    1  A    between atoms: O_1  and  C_2 
REMARK    2  A    between atoms: C_2  and  CA_3 
REMARK    3  A    between atoms: CA_3  and  CB_5 
REMARK    4  A    between atoms: CA_3  and  N_4 
REMARK    5  A    between atoms: CB_5  and  CG_6 
REMARK    6  A    between atoms: CG_6  and  SD_7 
ROOT
ATOM      1  CA  MET A   1      16.666  37.850  23.328  1.00  0.00     0.315 C 
ENDROOT
BRANCH   1   2
ATOM      2  C   MET A   1      17.045  37.632  24.773  1.00  0.00     0.173 C 
ATOM      3  OXT MET A   1      17.197  36.463  25.218  1.00  0.00    -0.648 OA
BRANCH   2   4
ATOM      4  O   MET A   1      17.234  38.713  25.630  1.00  0.00    -0.775 OA
ATOM      5  H   MET A   1      18.150  39.125  25.769  1.00  0.00     0.167 HD
ENDBRANCH   2   4
ENDBRANCH   1   2
BRANCH   1   6
ATOM      6  CB  MET A   1      17.536  38.966  22.708  1.00  0.00     0.056 C 
BRANCH   6   7
ATOM      7  CG  MET A   1      17.971  38.662  21.268  1.00  0.00     0.076 C 
BRANCH   7   8
ATOM      8  SD  MET A   1      17.839  36.879  20.891  1.00  0.00    -0.173 SA
ATOM      9  CE  MET A   1      19.055  36.922  19.536  1.00  0.00     0.089 C 
ENDBRANCH   7   8
ENDBRANCH   6   7
ENDBRANCH   1   6
BRANCH   1  10
ATOM     10  N   MET A   1      15.242  38.174  23.216  1.00  0.00     0.093 N 
ATOM     11  H1  MET A   1      15.111  38.842  22.423  1.00  0.00     0.314 HD
ATOM     12  H2  MET A   1      14.702  37.307  22.990  1.00  0.00     0.314 HD
ENDBRANCH   1  10
TORSDOF 6
ENDMDL
MODEL 2
REMARK VINA RESULT:      -4.5      1.874      1.995
REMARK  6 active torsions:
REMARK  status: ('A' for Active; 'I' for Inactive)
REMARK    1  A    between atoms: O_1  and  C_2 
REMARK    2  A    between atoms: C_2  and  CA_3 
REMARK    3  A    between atoms: CA_3  and  CB_5 
REMARK    4  A    between atoms: CA_3  and  N_4 
REMARK    5  A    between atoms: CB_5  and  CG_6 
REMARK    6  A    between atoms: CG_6  and  SD_7 
ROOT
ATOM      1  CA  MET A   1      17.266  36.949  22.974  1.00  0.00     0.315 C 
ENDROOT
BRANCH   1   2
ATOM      2  C   MET A   1      16.317  37.720  23.860  1.00  0.00     0.173 C 
ATOM      3  OXT MET A   1      16.669  38.056  25.023  1.00  0.00    -0.648 OA
BRANCH   2   4
ATOM      4  O   MET A   1      15.049  38.073  23.407  1.00  0.00    -0.775 OA
ATOM      5  H   MET A   1      14.239  38.029  24.013  1.00  0.00     0.167 HD
ENDBRANCH   2   4
ENDBRANCH   1   2
BRANCH   1   6
ATOM      6  CB  MET A   1      17.397  37.639  21.599  1.00  0.00     0.056 C 
BRANCH   6   7
ATOM      7  CG  MET A   1      18.303  38.878  21.628  1.00  0.00     0.076 C 
BRANCH   7   8
ATOM      8  SD  MET A   1      19.299  39.014  20.102  1.00  0.00    -0.173 SA
ATOM      9  CE  MET A   1      19.067  37.274  19.617  1.00  0.00     0.089 C 
ENDBRANCH   7   8
ENDBRANCH   6   7
ENDBRANCH   1   6
BRANCH   1  10
ATOM     10  N   MET A   1      16.814  35.564  22.824  1.00  0.00     0.093 N 
ATOM     11  H1  MET A   1      17.573  35.011  22.364  1.00  0.00     0.314 HD
ATOM     12  H2  MET A   1      16.648  35.144  23.768  1.00  0.00     0.314 HD
ENDBRANCH   1  10
TORSDOF 6
ENDMDL
MODEL 3
REMARK VINA RESULT:      -4.3      3.817      4.790
REMARK  6 active torsions:
REMARK  status: ('A' for Active; 'I' for Inactive)
REMARK    1  A    between atoms: O_1  and  C_2 
REMARK    2  A    between atoms: C_2  and  CA_3 
REMARK    3  A    between atoms: CA_3  and  CB_5 
REMARK    4  A    between atoms: CA_3  and  N_4 
REMARK    5  A    between atoms: CB_5  and  CG_6 
REMARK    6  A    between atoms: CG_6  and  SD_7 
ROOT
ATOM      1  CA  MET A   1      16.994  35.826  21.142  1.00  0.00     0.315 C 
ENDROOT
BRANCH   1   2
ATOM      2  C   MET A   1      15.707  35.388  20.483  1.00  0.00     0.173 C 
ATOM      3  OXT MET A   1      15.734  34.816  19.360  1.00  0.00    -0.648 OA
BRANCH   2   4
ATOM      4  O   MET A   1      14.480  35.607  21.103  1.00  0.00    -0.775 OA
ATOM      5  H   MET A   1      14.168  35.032  21.877  1.00  0.00     0.167 HD
ENDBRANCH   2   4
ENDBRANCH   1   2
BRANCH   1   6
ATOM      6  CB  MET A   1      16.709  36.902  22.212  1.00  0.00     0.056 C 
BRANCH   6   7
ATOM      7  CG  MET A   1      16.990  36.422  23.642  1.00  0.00     0.076 C 
BRANCH   7   8
ATOM      8  SD  MET A   1      17.245  37.828  24.782  1.00  0.00    -0.173 SA
ATOM      9  CE  MET A   1      18.249  36.879  25.968  1.00  0.00     0.089 C 
ENDBRANCH   7   8
ENDBRANCH   6   7
ENDBRANCH   1   6
BRANCH   1  10
ATOM     10  N   MET A   1      17.939  36.321  20.139  1.00  0.00     0.093 N 
ATOM     11  H1  MET A   1      18.879  36.423  20.586  1.00  0.00     0.314 HD
ATOM     12  H2  MET A   1      18.032  35.620  19.368  1.00  0.00     0.314 HD
ENDBRANCH   1  10
TORSDOF 6
ENDMDL
MODEL 4
REMARK VINA RESULT:      -4.3      3.859      4.686
REMARK  6 active torsions:
REMARK  status: ('A' for Active; 'I' for Inactive)
REMARK    1  A    between atoms: O_1  and  C_2 
REMARK    2  A    between atoms: C_2  and  CA_3 
REMARK    3  A    between atoms: CA_3  and  CB_5 
REMARK    4  A    between atoms: CA_3  and  N_4 
REMARK    5  A    between atoms: CB_5  and  CG_6 
REMARK    6  A    between atoms: CG_6  and  SD_7 
ROOT
ATOM      1  CA  MET A   1      15.574  35.426  21.395  1.00  0.00     0.315 C 
ENDROOT
BRANCH   1   2
ATOM      2  C   MET A   1      16.127  35.304  19.995  1.00  0.00     0.173 C 
ATOM      3  OXT MET A   1      17.229  35.841  19.701  1.00  0.00    -0.648 OA
BRANCH   2   4
ATOM      4  O   MET A   1      15.435  34.598  19.016  1.00  0.00    -0.775 OA
ATOM      5  H   MET A   1      14.444  34.404  19.104  1.00  0.00     0.167 HD
ENDBRANCH   2   4
ENDBRANCH   1   2
BRANCH   1   6
ATOM      6  CB  MET A   1      16.675  35.125  22.435  1.00  0.00     0.056 C 
BRANCH   6   7
ATOM      7  CG  MET A   1      16.924  36.288  23.406  1.00  0.00     0.076 C 
BRANCH   7   8
ATOM      8  SD  MET A   1      16.051  37.803  22.872  1.00  0.00    -0.173 SA
ATOM      9  CE  MET A   1      17.513  38.547  22.083  1.00  0.00     0.089 C 
ENDBRANCH   7   8
ENDBRANCH   6   7
ENDBRANCH   1   6
BRANCH   1  10
ATOM     10  N   MET A   1      14.428  34.531  21.571  1.00  0.00     0.093 N 
ATOM     11  H1  MET A   1      14.740  33.688  22.106  1.00  0.00     0.314 HD
ATOM     12  H2  MET A   1      13.693  35.010  22.141  1.00  0.00     0.314 HD
ENDBRANCH   1  10
TORSDOF 6
ENDMDL
MODEL 5
REMARK VINA RESULT:      -4.3      1.905      2.079
REMARK  6 active torsions:
REMARK  status: ('A' for Active; 'I' for Inactive)
REMARK    1  A    between atoms: O_1  and  C_2 
REMARK    2  A    between atoms: C_2  and  CA_3 
REMARK    3  A    between atoms: CA_3  and  CB_5 
REMARK    4  A    between atoms: CA_3  and  N_4 
REMARK    5  A    between atoms: CB_5  and  CG_6 
REMARK    6  A    between atoms: CG_6  and  SD_7 
ROOT
ATOM      1  CA  MET A   1      17.020  37.651  24.956  1.00  0.00     0.315 C 
ENDROOT
BRANCH   1   2
ATOM      2  C   MET A   1      17.868  36.608  25.645  1.00  0.00     0.173 C 
ATOM      3  OXT MET A   1      17.702  35.386  25.386  1.00  0.00    -0.648 OA
BRANCH   2   4
ATOM      4  O   MET A   1      18.842  36.980  26.567  1.00  0.00    -0.775 OA
ATOM      5  H   MET A   1      18.607  37.503  27.403  1.00  0.00     0.167 HD
ENDBRANCH   2   4
ENDBRANCH   1   2
BRANCH   1   6
ATOM      6  CB  MET A   1      17.348  37.699  23.448  1.00  0.00     0.056 C 
BRANCH   6   7
ATOM      7  CG  MET A   1      16.241  37.099  22.569  1.00  0.00     0.076 C 
BRANCH   7   8
ATOM      8  SD  MET A   1      16.796  35.562  21.751  1.00  0.00    -0.173 SA
ATOM      9  CE  MET A   1      17.827  36.415  20.515  1.00  0.00     0.089 C 
ENDBRANCH   7   8
ENDBRANCH   6   7
ENDBRANCH   1   6
BRANCH   1  10
ATOM     10  N   MET A   1      17.218  38.963  25.577  1.00  0.00     0.093 N 
ATOM     11  H1  MET A   1      17.861  39.526  24.974  1.00  0.00     0.314 HD
ATOM     12  H2  MET A   1      16.305  39.471  25.623  1.00  0.00     0.314 HD
ENDBRANCH   1  10
TORSDOF 6
ENDMDL
MODEL 6
REMARK VINA RESULT:      -4.3      4.253      5.267
REMARK  6 active torsions:
REMARK  status: ('A' for Active; 'I' for Inactive)
REMARK    1  A    between atoms: O_1  and  C_2 
REMARK    2  A    between atoms: C_2  and  CA_3 
REMARK    3  A    between atoms: CA_3  and  CB_5 
REMARK    4  A    between atoms: CA_3  and  N_4 
REMARK    5  A    between atoms: CB_5  and  CG_6 
REMARK    6  A    between atoms: CG_6  and  SD_7 
ROOT
ATOM      1  CA  MET A   1      18.658  38.107  19.733  1.00  0.00     0.315 C 
ENDROOT
BRANCH   1   2
ATOM      2  C   MET A   1      19.405  39.052  18.822  1.00  0.00     0.173 C 
ATOM      3  OXT MET A   1      18.825  39.562  17.827  1.00  0.00    -0.648 OA
BRANCH   2   4
ATOM      4  O   MET A   1      20.736  39.375  19.070  1.00  0.00    -0.775 OA
ATOM      5  H   MET A   1      21.072  40.328  19.000  1.00  0.00     0.167 HD
ENDBRANCH   2   4
ENDBRANCH   1   2
BRANCH   1   6
ATOM      6  CB  MET A   1      18.759  38.581  21.199  1.00  0.00     0.056 C 
BRANCH   6   7
ATOM      7  CG  MET A   1      17.393  38.729  21.882  1.00  0.00     0.076 C 
BRANCH   7   8
ATOM      8  SD  MET A   1      16.817  37.139  22.577  1.00  0.00    -0.173 SA
ATOM      9  CE  MET A   1      16.943  37.680  24.311  1.00  0.00     0.089 C 
ENDBRANCH   7   8
ENDBRANCH   6   7
ENDBRANCH   1   6
BRANCH   1  10
ATOM     10  N   MET A   1      19.173  36.743  19.587  1.00  0.00     0.093 N 
ATOM     11  H1  MET A   1      20.209  36.788  19.451  1.00  0.00     0.314 HD
ATOM     12  H2  MET A   1      18.995  36.205  20.466  1.00  0.00     0.314 HD
ENDBRANCH   1  10
TORSDOF 6
ENDMDL
MODEL 7
REMARK VINA RESULT:      -4.2      8.873      9.893
REMARK  6 active torsions:
REMARK  status: ('A' for Active; 'I' for Inactive)
REMARK    1  A    between atoms: O_1  and  C_2 
REMARK    2  A    between atoms: C_2  and  CA_3 
REMARK    3  A    between atoms: CA_3  and  CB_5 
REMARK    4  A    between atoms: CA_3  and  N_4 
REMARK    5  A    between atoms: CB_5  and  CG_6 
REMARK    6  A    between atoms: CG_6  and  SD_7 
ROOT
ATOM      1  CA  MET A   1      13.703  31.400  17.221  1.00  0.00     0.315 C 
ENDROOT
BRANCH   1   2
ATOM      2  C   MET A   1      14.560  31.935  18.343  1.00  0.00     0.173 C 
ATOM      3  OXT MET A   1      15.552  32.668  18.087  1.00  0.00    -0.648 OA
BRANCH   2   4
ATOM      4  O   MET A   1      14.267  31.630  19.669  1.00  0.00    -0.775 OA
ATOM      5  H   MET A   1      14.388  32.312  20.409  1.00  0.00     0.167 HD
ENDBRANCH   2   4
ENDBRANCH   1   2
BRANCH   1   6
ATOM      6  CB  MET A   1      14.497  31.392  15.896  1.00  0.00     0.056 C 
BRANCH   6   7
ATOM      7  CG  MET A   1      14.079  30.259  14.948  1.00  0.00     0.076 C 
BRANCH   7   8
ATOM      8  SD  MET A   1      15.310  30.011  13.620  1.00  0.00    -0.173 SA
ATOM      9  CE  MET A   1      15.255  28.193  13.703  1.00  0.00     0.089 C 
ENDBRANCH   7   8
ENDBRANCH   6   7
ENDBRANCH   1   6
BRANCH   1  10
ATOM     10  N   MET A   1      12.477  32.191  17.092  1.00  0.00     0.093 N 
ATOM     11  H1  MET A   1      12.348  32.755  17.964  1.00  0.00     0.314 HD
ATOM     12  H2  MET A   1      12.574  32.862  16.296  1.00  0.00     0.314 HD
ENDBRANCH   1  10
TORSDOF 6
ENDMDL
MODEL 8
REMARK VINA RESULT:      -4.2      4.073      4.912
REMARK  6 active torsions:
REMARK  status: ('A' for Active; 'I' for Inactive)
REMARK    1  A    between atoms: O_1  and  C_2 
REMARK    2  A    between atoms: C_2  and  CA_3 
REMARK    3  A    between atoms: CA_3  and  CB_5 
REMARK    4  A    between atoms: CA_3  and  N_4 
REMARK    5  A    between atoms: CB_5  and  CG_6 
REMARK    6  A    between atoms: CG_6  and  SD_7 
ROOT
ATOM      1  CA  MET A   1      15.565  35.190  20.912  1.00  0.00     0.315 C 
ENDROOT
BRANCH   1   2
ATOM      2  C   MET A   1      15.201  33.734  20.747  1.00  0.00     0.173 C 
ATOM      3  OXT MET A   1      15.891  32.991  19.999  1.00  0.00    -0.648 OA
BRANCH   2   4
ATOM      4  O   MET A   1      14.108  33.194  21.418  1.00  0.00    -0.775 OA
ATOM      5  H   MET A   1      13.563  32.438  21.020  1.00  0.00     0.167 HD
ENDBRANCH   2   4
ENDBRANCH   1   2
BRANCH   1   6
ATOM      6  CB  MET A   1      16.681  35.349  21.968  1.00  0.00     0.056 C 
BRANCH   6   7
ATOM      7  CG  MET A   1      17.131  36.804  22.157  1.00  0.00     0.076 C 
BRANCH   7   8
ATOM      8  SD  MET A   1      16.839  37.377  23.869  1.00  0.00    -0.173 SA
ATOM      9  CE  MET A   1      17.265  35.780  24.634  1.00  0.00     0.089 C 
ENDBRANCH   7   8
ENDBRANCH   6   7
ENDBRANCH   1   6
BRANCH   1  10
ATOM     10  N   MET A   1      14.383  35.974  21.277  1.00  0.00     0.093 N 
ATOM     11  H1  MET A   1      13.533  35.378  21.153  1.00  0.00     0.314 HD
ATOM     12  H2  MET A   1      14.435  36.238  22.288  1.00  0.00     0.314 HD
ENDBRANCH   1  10
TORSDOF 6
ENDMDL
MODEL 9
REMARK VINA RESULT:      -4.1      3.385      3.773
REMARK  6 active torsions:
REMARK  status: ('A' for Active; 'I' for Inactive)
REMARK    1  A    between atoms: O_1  and  C_2 
REMARK    2  A    between atoms: C_2  and  CA_3 
REMARK    3  A    between atoms: CA_3  and  CB_5 
REMARK    4  A    between atoms: CA_3  and  N_4 
REMARK    5  A    between atoms: CB_5  and  CG_6 
REMARK    6  A    between atoms: CG_6  and  SD_7 
ROOT
ATOM      1  CA  MET A   1      16.409  36.033  21.955  1.00  0.00     0.315 C 
ENDROOT
BRANCH   1   2
ATOM      2  C   MET A   1      15.547  35.204  21.034  1.00  0.00     0.173 C 
ATOM      3  OXT MET A   1      15.946  34.928  19.871  1.00  0.00    -0.648 OA
BRANCH   2   4
ATOM      4  O   MET A   1      14.307  34.731  21.455  1.00  0.00    -0.775 OA
ATOM      5  H   MET A   1      13.822  35.146  22.242  1.00  0.00     0.167 HD
ENDBRANCH   2   4
ENDBRANCH   1   2
BRANCH   1   6
ATOM      6  CB  MET A   1      17.507  36.763  21.150  1.00  0.00     0.056 C 
BRANCH   6   7
ATOM      7  CG  MET A   1      17.760  38.197  21.635  1.00  0.00     0.076 C 
BRANCH   7   8
ATOM      8  SD  MET A   1      18.950  39.068  20.555  1.00  0.00    -0.173 SA
ATOM      9  CE  MET A   1      19.250  37.633  19.476  1.00  0.00     0.089 C 
ENDBRANCH   7   8
ENDBRANCH   6   7
ENDBRANCH   1   6
BRANCH   1  10
ATOM     10  N   MET A   1      16.998  35.192  22.999  1.00  0.00     0.093 N 
ATOM     11  H1  MET A   1      16.655  35.523  23.930  1.00  0.00     0.314 HD
ATOM     12  H2  MET A   1      16.675  34.205  22.879  1.00  0.00     0.314 HD
ENDBRANCH   1  10
TORSDOF 6
ENDMDL
MODEL 10
REMARK VINA RESULT:      -4.1      7.944      8.933
REMARK  6 active torsions:
REMARK  status: ('A' for Active; 'I' for Inactive)
REMARK    1  A    between atoms: O_1  and  C_2 
REMARK    2  A    between atoms: C_2  and  CA_3 
REMARK    3  A    between atoms: CA_3  and  CB_5 
REMARK    4  A    between atoms: CA_3  and  N_4 
REMARK    5  A    between atoms: CB_5  and  CG_6 
REMARK    6  A    between atoms: CG_6  and  SD_7 
ROOT
ATOM      1  CA  MET A   1      14.887  32.480  17.724  1.00  0.00     0.315 C 
ENDROOT
BRANCH   1   2
ATOM      2  C   MET A   1      15.313  33.921  17.578  1.00  0.00     0.173 C 
ATOM      3  OXT MET A   1      15.591  34.387  16.441  1.00  0.00    -0.648 OA
BRANCH   2   4
ATOM      4  O   MET A   1      15.399  34.753  18.691  1.00  0.00    -0.775 OA
ATOM      5  H   MET A   1      15.167  34.421  19.620  1.00  0.00     0.167 HD
ENDBRANCH   2   4
ENDBRANCH   1   2
BRANCH   1   6
ATOM      6  CB  MET A   1      13.723  32.164  16.760  1.00  0.00     0.056 C 
BRANCH   6   7
ATOM      7  CG  MET A   1      13.945  30.882  15.945  1.00  0.00     0.076 C 
BRANCH   7   8
ATOM      8  SD  MET A   1      15.248  31.109  14.683  1.00  0.00    -0.173 SA
ATOM      9  CE  MET A   1      15.124  29.412  14.035  1.00  0.00     0.089 C 
ENDBRANCH   7   8
ENDBRANCH   6   7
ENDBRANCH   1   6
BRANCH   1  10
ATOM     10  N   MET A   1      14.510  32.196  19.110  1.00  0.00     0.093 N 
ATOM     11  H1  MET A   1      13.762  31.465  19.112  1.00  0.00     0.314 HD
ATOM     12  H2  MET A   1      15.333  31.804  19.625  1.00  0.00     0.314 HD
ENDBRANCH   1  10
TORSDOF 6
ENDMDL
MODEL 11
REMARK VINA RESULT:      -4.1      1.884      2.116
REMARK  6 active torsions:
REMARK  status: ('A' for Active; 'I' for Inactive)
REMARK    1  A    between atoms: O_1  and  C_2 
REMARK    2  A    between atoms: C_2  and  CA_3 
REMARK    3  A    between atoms: CA_3  and  CB_5 
REMARK    4  A    between atoms: CA_3  and  N_4 
REMARK    5  A    between atoms: CB_5  and  CG_6 
REMARK    6  A    between atoms: CG_6  and  SD_7 
ROOT
ATOM      1  CA  MET A   1      17.069  37.802  24.620  1.00  0.00     0.315 C 
ENDROOT
BRANCH   1   2
ATOM      2  C   MET A   1      17.398  36.365  24.949  1.00  0.00     0.173 C 
ATOM      3  OXT MET A   1      17.847  36.063  26.087  1.00  0.00    -0.648 OA
BRANCH   2   4
ATOM      4  O   MET A   1      17.208  35.358  24.006  1.00  0.00    -0.775 OA
ATOM      5  H   MET A   1      16.869  35.563  23.074  1.00  0.00     0.167 HD
ENDBRANCH   2   4
ENDBRANCH   1   2
BRANCH   1   6
ATOM      6  CB  MET A   1      17.949  38.300  23.453  1.00  0.00     0.056 C 
BRANCH   6   7
ATOM      7  CG  MET A   1      17.203  38.352  22.112  1.00  0.00     0.076 C 
BRANCH   7   8
ATOM      8  SD  MET A   1      18.260  37.776  20.736  1.00  0.00    -0.173 SA
ATOM      9  CE  MET A   1      19.019  39.404  20.441  1.00  0.00     0.089 C 
ENDBRANCH   7   8
ENDBRANCH   6   7
ENDBRANCH   1   6
BRANCH   1  10
ATOM     10  N   MET A   1      17.239  38.649  25.802  1.00  0.00     0.093 N 
ATOM     11  H1  MET A   1      18.235  38.963  25.850  1.00  0.00     0.314 HD
ATOM     12  H2  MET A   1      16.644  39.504  25.710  1.00  0.00     0.314 HD
ENDBRANCH   1  10
TORSDOF 6
ENDMDL
MODEL 12
REMARK VINA RESULT:      -4.0      3.344      4.296
REMARK  6 active torsions:
REMARK  status: ('A' for Active; 'I' for Inactive)
REMARK    1  A    between atoms: O_1  and  C_2 
REMARK    2  A    between atoms: C_2  and  CA_3 
REMARK    3  A    between atoms: CA_3  and  CB_5 
REMARK    4  A    between atoms: CA_3  and  N_4 
REMARK    5  A    between atoms: CB_5  and  CG_6 
REMARK    6  A    between atoms: CG_6  and  SD_7 
ROOT
ATOM      1  CA  MET A   1      18.193  38.457  21.921  1.00  0.00     0.315 C 
ENDROOT
BRANCH   1   2
ATOM      2  C   MET A   1      18.292  37.618  20.670  1.00  0.00     0.173 C 
ATOM      3  OXT MET A   1      17.842  36.441  20.661  1.00  0.00    -0.648 OA
BRANCH   2   4
ATOM      4  O   MET A   1      18.874  38.130  19.514  1.00  0.00    -0.775 OA
ATOM      5  H   MET A   1      19.798  37.842  19.214  1.00  0.00     0.167 HD
ENDBRANCH   2   4
ENDBRANCH   1   2
BRANCH   1   6
ATOM      6  CB  MET A   1      16.715  38.644  22.327  1.00  0.00     0.056 C 
BRANCH   6   7
ATOM      7  CG  MET A   1      16.298  37.761  23.512  1.00  0.00     0.076 C 
BRANCH   7   8
ATOM      8  SD  MET A   1      17.409  37.995  24.944  1.00  0.00    -0.173 SA
ATOM      9  CE  MET A   1      17.544  36.218  25.320  1.00  0.00     0.089 C 
ENDBRANCH   7   8
ENDBRANCH   6   7
ENDBRANCH   1   6
BRANCH   1  10
ATOM     10  N   MET A   1      18.848  39.752  21.721  1.00  0.00     0.093 N 
ATOM     11  H1  MET A   1      19.640  39.627  21.050  1.00  0.00     0.314 HD
ATOM     12  H2  MET A   1      18.173  40.424  21.289  1.00  0.00     0.314 HD
ENDBRANCH   1  10
TORSDOF 6
ENDMDL
MODEL 13
REMARK VINA RESULT:      -3.9      9.554     10.426
REMARK  6 active torsions:
REMARK  status: ('A' for Active; 'I' for Inactive)
REMARK    1  A    between atoms: O_1  and  C_2 
REMARK    2  A    between atoms: C_2  and  CA_3 
REMARK    3  A    between atoms: CA_3  and  CB_5 
REMARK    4  A    between atoms: CA_3  and  N_4 
REMARK    5  A    between atoms: CB_5  and  CG_6 
REMARK    6  A    between atoms: CG_6  and  SD_7 
ROOT
ATOM      1  CA  MET A   1      17.460  33.449  14.897  1.00  0.00     0.315 C 
ENDROOT
BRANCH   1   2
ATOM      2  C   MET A   1      17.533  33.638  13.401  1.00  0.00     0.173 C 
ATOM      3  OXT MET A   1      17.465  34.795  12.905  1.00  0.00    -0.648 OA
BRANCH   2   4
ATOM      4  O   MET A   1      17.678  32.544  12.552  1.00  0.00    -0.775 OA
ATOM      5  H   MET A   1      18.572  32.082  12.433  1.00  0.00     0.167 HD
ENDBRANCH   2   4
ENDBRANCH   1   2
BRANCH   1   6
ATOM      6  CB  MET A   1      16.380  32.404  15.254  1.00  0.00     0.056 C 
BRANCH   6   7
ATOM      7  CG  MET A   1      15.362  32.915  16.283  1.00  0.00     0.076 C 
BRANCH   7   8
ATOM      8  SD  MET A   1      14.108  31.643  16.670  1.00  0.00    -0.173 SA
ATOM      9  CE  MET A   1      14.404  30.675  15.157  1.00  0.00     0.089 C 
ENDBRANCH   7   8
ENDBRANCH   6   7
ENDBRANCH   1   6
BRANCH   1  10
ATOM     10  N   MET A   1      17.193  34.726  15.562  1.00  0.00     0.093 N 
ATOM     11  H1  MET A   1      18.105  35.179  15.800  1.00  0.00     0.314 HD
ATOM     12  H2  MET A   1      16.688  35.365  14.905  1.00  0.00     0.314 HD
ENDBRANCH   1  10
TORSDOF 6
ENDMDL
MODEL 14
REMARK VINA RESULT:      -3.9      2.586      3.010
REMARK  6 active torsions:
REMARK  status: ('A' for Active; 'I' for Inactive)
REMARK    1  A    between atoms: O_1  and  C_2 
REMARK    2  A    between atoms: C_2  and  CA_3 
REMARK    3  A    between atoms: CA_3  and  CB_5 
REMARK    4  A    between atoms: CA_3  and  N_4 
REMARK    5  A    between atoms: CB_5  and  CG_6 
REMARK    6  A    between atoms: CG_6  and  SD_7 
ROOT
ATOM      1  CA  MET A   1      16.957  36.508  24.231  1.00  0.00     0.315 C 
ENDROOT
BRANCH   1   2
ATOM      2  C   MET A   1      17.624  36.161  25.541  1.00  0.00     0.173 C 
ATOM      3  OXT MET A   1      18.632  36.810  25.929  1.00  0.00    -0.648 OA
BRANCH   2   4
ATOM      4  O   MET A   1      17.136  35.127  26.335  1.00  0.00    -0.775 OA
ATOM      5  H   MET A   1      16.341  34.569  26.048  1.00  0.00     0.167 HD
ENDBRANCH   2   4
ENDBRANCH   1   2
BRANCH   1   6
ATOM      6  CB  MET A   1      17.119  35.350  23.223  1.00  0.00     0.056 C 
BRANCH   6   7
ATOM      7  CG  MET A   1      16.924  35.787  21.764  1.00  0.00     0.076 C 
BRANCH   7   8
ATOM      8  SD  MET A   1      15.218  35.467  21.193  1.00  0.00    -0.173 SA
ATOM      9  CE  MET A   1      15.610  33.854  20.446  1.00  0.00     0.089 C 
ENDBRANCH   7   8
ENDBRANCH   6   7
ENDBRANCH   1   6
BRANCH   1  10
ATOM     10  N   MET A   1      17.508  37.753  23.691  1.00  0.00     0.093 N 
ATOM     11  H1  MET A   1      18.120  38.192  24.417  1.00  0.00     0.314 HD
ATOM     12  H2  MET A   1      18.108  37.541  22.861  1.00  0.00     0.314 HD
ENDBRANCH   1  10
TORSDOF 6
ENDMDL
MODEL 15
REMARK VINA RESULT:      -3.8      4.190      4.991
REMARK  6 active torsions:
REMARK  status: ('A' for Active; 'I' for Inactive)
REMARK    1  A    between atoms: O_1  and  C_2 
REMARK    2  A    between atoms: C_2  and  CA_3 
REMARK    3  A    between atoms: CA_3  and  CB_5 
REMARK    4  A    between atoms: CA_3  and  N_4 
REMARK    5  A    between atoms: CB_5  and  CG_6 
REMARK    6  A    between atoms: CG_6  and  SD_7 
ROOT
ATOM      1  CA  MET A   1      19.532  38.583  19.635  1.00  0.00     0.315 C 
ENDROOT
BRANCH   1   2
ATOM      2  C   MET A   1      19.229  37.150  19.268  1.00  0.00     0.173 C 
ATOM      3  OXT MET A   1      18.139  36.858  18.706  1.00  0.00    -0.648 OA
BRANCH   2   4
ATOM      4  O   MET A   1      20.145  36.138  19.539  1.00  0.00    -0.775 OA
ATOM      5  H   MET A   1      20.103  35.244  19.063  1.00  0.00     0.167 HD
ENDBRANCH   2   4
ENDBRANCH   1   2
BRANCH   1   6
ATOM      6  CB  MET A   1      18.401  39.162  20.513  1.00  0.00     0.056 C 
BRANCH   6   7
ATOM      7  CG  MET A   1      18.687  39.051  22.017  1.00  0.00     0.076 C 
BRANCH   7   8
ATOM      8  SD  MET A   1      17.168  38.674  22.961  1.00  0.00    -0.173 SA
ATOM      9  CE  MET A   1      16.877  37.075  22.142  1.00  0.00     0.089 C 
ENDBRANCH   7   8
ENDBRANCH   6   7
ENDBRANCH   1   6
BRANCH   1  10
ATOM     10  N   MET A   1      19.723  39.391  18.428  1.00  0.00     0.093 N 
ATOM     11  H1  MET A   1      19.510  40.389  18.655  1.00  0.00     0.314 HD
ATOM     12  H2  MET A   1      20.724  39.344  18.129  1.00  0.00     0.314 HD
ENDBRANCH   1  10
TORSDOF 6
ENDMDL
MODEL 16
REMARK VINA RESULT:      -3.8      3.466      4.381
REMARK  6 active torsions:
REMARK  status: ('A' for Active; 'I' for Inactive)
REMARK    1  A    between atoms: O_1  and  C_2 
REMARK    2  A    between atoms: C_2  and  CA_3 
REMARK    3  A    between atoms: CA_3  and  CB_5 
REMARK    4  A    between atoms: CA_3  and  N_4 
REMARK    5  A    between atoms: CB_5  and  CG_6 
REMARK    6  A    between atoms: CG_6  and  SD_7 
ROOT
ATOM      1  CA  MET A   1      16.979  36.548  21.070  1.00  0.00     0.315 C 
ENDROOT
BRANCH   1   2
ATOM      2  C   MET A   1      18.260  37.083  20.477  1.00  0.00     0.173 C 
ATOM      3  OXT MET A   1      18.832  36.461  19.542  1.00  0.00    -0.648 OA
BRANCH   2   4
ATOM      4  O   MET A   1      18.822  38.266  20.949  1.00  0.00    -0.775 OA
ATOM      5  H   MET A   1      19.750  38.285  21.356  1.00  0.00     0.167 HD
ENDBRANCH   2   4
ENDBRANCH   1   2
BRANCH   1   6
ATOM      6  CB  MET A   1      17.105  36.431  22.604  1.00  0.00     0.056 C 
BRANCH   6   7
ATOM      7  CG  MET A   1      16.523  37.638  23.353  1.00  0.00     0.076 C 
BRANCH   7   8
ATOM      8  SD  MET A   1      17.262  37.816  25.015  1.00  0.00    -0.173 SA
ATOM      9  CE  MET A   1      17.532  36.030  25.249  1.00  0.00     0.089 C 
ENDBRANCH   7   8
ENDBRANCH   6   7
ENDBRANCH   1   6
BRANCH   1  10
ATOM     10  N   MET A   1      16.640  35.254  20.473  1.00  0.00     0.093 N 
ATOM     11  H1  MET A   1      15.609  35.102  20.565  1.00  0.00     0.314 HD
ATOM     12  H2  MET A   1      16.865  35.269  19.451  1.00  0.00     0.314 HD
ENDBRANCH   1  10
TORSDOF 6
ENDMDL
MODEL 17
REMARK VINA RESULT:      -3.8     10.979     11.655
REMARK  6 active torsions:
REMARK  status: ('A' for Active; 'I' for Inactive)
REMARK    1  A    between atoms: O_1  and  C_2 
REMARK    2  A    between atoms: C_2  and  CA_3 
REMARK    3  A    between atoms: CA_3  and  CB_5 
REMARK    4  A    between atoms: CA_3  and  N_4 
REMARK    5  A    between atoms: CB_5  and  CG_6 
REMARK    6  A    between atoms: CG_6  and  SD_7 
ROOT
ATOM      1  CA  MET A   1      14.880  29.961  14.595  1.00  0.00     0.315 C 
ENDROOT
BRANCH   1   2
ATOM      2  C   MET A   1      13.383  29.815  14.724  1.00  0.00     0.173 C 
ATOM      3  OXT MET A   1      12.737  30.573  15.496  1.00  0.00    -0.648 OA
BRANCH   2   4
ATOM      4  O   MET A   1      12.698  28.847  13.995  1.00  0.00    -0.775 OA
ATOM      5  H   MET A   1      11.935  29.093  13.375  1.00  0.00     0.167 HD
ENDBRANCH   2   4
ENDBRANCH   1   2
BRANCH   1   6
ATOM      6  CB  MET A   1      15.318  31.384  15.004  1.00  0.00     0.056 C 
BRANCH   6   7
ATOM      7  CG  MET A   1      16.090  32.120  13.900  1.00  0.00     0.076 C 
BRANCH   7   8
ATOM      8  SD  MET A   1      17.396  33.191  14.598  1.00  0.00    -0.173 SA
ATOM      9  CE  MET A   1      18.111  33.627  12.981  1.00  0.00     0.089 C 
ENDBRANCH   7   8
ENDBRANCH   6   7
ENDBRANCH   1   6
BRANCH   1  10
ATOM     10  N   MET A   1      15.308  29.654  13.228  1.00  0.00     0.093 N 
ATOM     11  H1  MET A   1      15.888  28.784  13.245  1.00  0.00     0.314 HD
ATOM     12  H2  MET A   1      14.470  29.461  12.633  1.00  0.00     0.314 HD
ENDBRANCH   1  10
TORSDOF 6
ENDMDL
MODEL 18
REMARK VINA RESULT:      -3.8      9.991     11.189
REMARK  6 active torsions:
REMARK  status: ('A' for Active; 'I' for Inactive)
REMARK    1  A    between atoms: O_1  and  C_2 
REMARK    2  A    between atoms: C_2  and  CA_3 
REMARK    3  A    between atoms: CA_3  and  CB_5 
REMARK    4  A    between atoms: CA_3  and  N_4 
REMARK    5  A    between atoms: CB_5  and  CG_6 
REMARK    6  A    between atoms: CG_6  and  SD_7 
ROOT
ATOM      1  CA  MET A   1      13.692  30.321  14.913  1.00  0.00     0.315 C 
ENDROOT
BRANCH   1   2
ATOM      2  C   MET A   1      15.075  29.921  14.459  1.00  0.00     0.173 C 
ATOM      3  OXT MET A   1      15.300  28.739  14.086  1.00  0.00    -0.648 OA
BRANCH   2   4
ATOM      4  O   MET A   1      16.114  30.847  14.442  1.00  0.00    -0.775 OA
ATOM      5  H   MET A   1      16.276  31.475  15.221  1.00  0.00     0.167 HD
ENDBRANCH   2   4
ENDBRANCH   1   2
BRANCH   1   6
ATOM      6  CB  MET A   1      13.680  30.576  16.436  1.00  0.00     0.056 C 
BRANCH   6   7
ATOM      7  CG  MET A   1      13.378  32.035  16.803  1.00  0.00     0.076 C 
BRANCH   7   8
ATOM      8  SD  MET A   1      14.909  32.964  17.168  1.00  0.00    -0.173 SA
ATOM      9  CE  MET A   1      15.081  32.309  18.858  1.00  0.00     0.089 C 
ENDBRANCH   7   8
ENDBRANCH   6   7
ENDBRANCH   1   6
BRANCH   1  10
ATOM     10  N   MET A   1      12.715  29.293  14.547  1.00  0.00     0.093 N 
ATOM     11  H1  MET A   1      13.049  28.805  13.685  1.00  0.00     0.314 HD
ATOM     12  H2  MET A   1      12.655  28.578  15.309  1.00  0.00     0.314 HD
ENDBRANCH   1  10
TORSDOF 6
ENDMDL
MODEL 19
REMARK VINA RESULT:      -3.6      7.179      8.165
REMARK  6 active torsions:
REMARK  status: ('A' for Active; 'I' for Inactive)
REMARK    1  A    between atoms: O_1  and  C_2 
REMARK    2  A    between atoms: C_2  and  CA_3 
REMARK    3  A    between atoms: CA_3  and  CB_5 
REMARK    4  A    between atoms: CA_3  and  N_4 
REMARK    5  A    between atoms: CB_5  and  CG_6 
REMARK    6  A    between atoms: CG_6  and  SD_7 
ROOT
ATOM      1  CA  MET A   1      15.018  32.470  17.820  1.00  0.00     0.315 C 
ENDROOT
BRANCH   1   2
ATOM      2  C   MET A   1      13.901  31.793  17.061  1.00  0.00     0.173 C 
ATOM      3  OXT MET A   1      14.163  30.897  16.215  1.00  0.00    -0.648 OA
BRANCH   2   4
ATOM      4  O   MET A   1      12.573  32.145  17.287  1.00  0.00    -0.775 OA
ATOM      5  H   MET A   1      12.283  32.594  18.148  1.00  0.00     0.167 HD
ENDBRANCH   2   4
ENDBRANCH   1   2
BRANCH   1   6
ATOM      6  CB  MET A   1      14.853  32.237  19.338  1.00  0.00     0.056 C 
BRANCH   6   7
ATOM      7  CG  MET A   1      15.831  33.061  20.186  1.00  0.00     0.076 C 
BRANCH   7   8
ATOM      8  SD  MET A   1      14.955  34.303  21.201  1.00  0.00    -0.173 SA
ATOM      9  CE  MET A   1      16.288  35.539  21.109  1.00  0.00     0.089 C 
ENDBRANCH   7   8
ENDBRANCH   6   7
ENDBRANCH   1   6
BRANCH   1  10
ATOM     10  N   MET A   1      15.052  33.901  17.511  1.00  0.00     0.093 N 
ATOM     11  H1  MET A   1      14.220  34.359  17.949  1.00  0.00     0.314 HD
ATOM     12  H2  MET A   1      15.906  34.331  17.934  1.00  0.00     0.314 HD
ENDBRANCH   1  10
TORSDOF 6
ENDMDL
MODEL 20
REMARK VINA RESULT:      -3.6      3.165      4.081
REMARK  6 active torsions:
REMARK  status: ('A' for Active; 'I' for Inactive)
REMARK    1  A    between atoms: O_1  and  C_2 
REMARK    2  A    between atoms: C_2  and  CA_3 
REMARK    3  A    between atoms: CA_3  and  CB_5 
REMARK    4  A    between atoms: CA_3  and  N_4 
REMARK    5  A    between atoms: CB_5  and  CG_6 
REMARK    6  A    between atoms: CG_6  and  SD_7 
ROOT
ATOM      1  CA  MET A   1      15.619  36.588  21.578  1.00  0.00     0.315 C 
ENDROOT
BRANCH   1   2
ATOM      2  C   MET A   1      16.844  35.741  21.326  1.00  0.00     0.173 C 
ATOM      3  OXT MET A   1      17.093  34.752  22.065  1.00  0.00    -0.648 OA
BRANCH   2   4
ATOM      4  O   MET A   1      17.710  36.038  20.277  1.00  0.00    -0.775 OA
ATOM      5  H   MET A   1      18.283  36.874  20.284  1.00  0.00     0.167 HD
ENDBRANCH   2   4
ENDBRANCH   1   2
BRANCH   1   6
ATOM      6  CB  MET A   1      15.721  37.284  22.952  1.00  0.00     0.056 C 
BRANCH   6   7
ATOM      7  CG  MET A   1      17.157  37.675  23.327  1.00  0.00     0.076 C 
BRANCH   7   8
ATOM      8  SD  MET A   1      17.301  38.071  25.105  1.00  0.00    -0.173 SA
ATOM      9  CE  MET A   1      17.759  36.379  25.598  1.00  0.00     0.089 C 
ENDBRANCH   7   8
ENDBRANCH   6   7
ENDBRANCH   1   6
BRANCH   1  10
ATOM     10  N   MET A   1      14.407  35.770  21.493  1.00  0.00     0.093 N 
ATOM     11  H1  MET A   1      13.587  36.355  21.776  1.00  0.00     0.314 HD
ATOM     12  H2  MET A   1      14.252  35.472  20.502  1.00  0.00     0.314 HD
ENDBRANCH   1  10
TORSDOF 6
ENDMDL
