MODEL 1
REMARK VINA RESULT:      -5.9      0.000      0.000
REMARK  2 active torsions:
REMARK  status: ('A' for Active; 'I' for Inactive)
REMARK    1  A    between atoms: C_2  and  C_3 
REMARK    2  A    between atoms: C_2  and  O_10 
ROOT
HETATM    1  C   LIG     1      18.628  38.270  20.214  1.00  0.00     0.041 C 
HETATM    2  C   LIG     1      18.365  36.988  19.897  1.00  0.00    -0.010 C 
HETATM    3  C   LIG     1      17.644  36.057  20.831  1.00  0.00     0.058 C 
HETATM    4  C   LIG     1      16.881  36.816  21.917  1.00  0.00     0.276 C 
HETATM    5  N   LIG     1      17.755  37.849  22.496  1.00  0.00     0.088 N 
HETATM    6  C   LIG     1      17.104  38.469  23.661  1.00  0.00     0.310 C 
HETATM    7  C   LIG     1      18.060  38.877  21.481  1.00  0.00     0.316 C 
ENDROOT
BRANCH   1   8
HETATM    8  C   LIG     1      19.372  39.133  19.268  1.00  0.00     0.290 C 
HETATM    9  O   LIG     1      20.626  39.233  19.366  1.00  0.00    -0.260 OA
BRANCH   8  10
HETATM   10  O   LIG     1      18.690  39.835  18.268  1.00  0.00    -0.323 OA
HETATM   11  C   LIG     1      18.799  39.507  16.888  1.00  0.00     0.213 C 
ENDBRANCH   8  10
ENDBRANCH   1   8
TORSDOF 2
ENDMDL
MODEL 2
REMARK VINA RESULT:      -5.8      3.063      4.804
REMARK  2 active torsions:
REMARK  status: ('A' for Active; 'I' for Inactive)
REMARK    1  A    between atoms: C_2  and  C_3 
REMARK    2  A    between atoms: C_2  and  O_10 
ROOT
HETATM    1  C   LIG     1      17.342  37.654  22.420  1.00  0.00     0.041 C 
HETATM    2  C   LIG     1      16.970  36.526  21.786  1.00  0.00    -0.010 C 
HETATM    3  C   LIG     1      17.454  36.180  20.405  1.00  0.00     0.058 C 
HETATM    4  C   LIG     1      18.703  36.975  20.023  1.00  0.00     0.276 C 
HETATM    5  N   LIG     1      18.500  38.394  20.357  1.00  0.00     0.088 N 
HETATM    6  C   LIG     1      19.614  39.202  19.834  1.00  0.00     0.310 C 
HETATM    7  C   LIG     1      18.402  38.556  21.821  1.00  0.00     0.316 C 
ENDROOT
BRANCH   1   8
HETATM    8  C   LIG     1      16.807  37.960  23.767  1.00  0.00     0.290 C 
HETATM    9  O   LIG     1      15.559  38.030  23.944  1.00  0.00    -0.260 OA
BRANCH   8  10
HETATM   10  O   LIG     1      17.679  38.172  24.841  1.00  0.00    -0.323 OA
HETATM   11  C   LIG     1      18.126  37.118  25.685  1.00  0.00     0.213 C 
ENDBRANCH   8  10
ENDBRANCH   1   8
TORSDOF 2
ENDMDL
MODEL 3
REMARK VINA RESULT:      -5.7      0.955      1.980
REMARK  2 active torsions:
REMARK  status: ('A' for Active; 'I' for Inactive)
REMARK    1  A    between atoms: C_2  and  C_3 
REMARK    2  A    between atoms: C_2  and  O_10 
ROOT
HETATM    1  C   LIG     1      18.525  38.387  20.328  1.00  0.00     0.041 C 
HETATM    2  C   LIG     1      18.265  39.264  21.315  1.00  0.00    -0.010 C 
HETATM    3  C   LIG     1      17.471  38.893  22.537  1.00  0.00     0.058 C 
HETATM    4  C   LIG     1      17.401  37.378  22.733  1.00  0.00     0.276 C 
HETATM    5  N   LIG     1      17.058  36.735  21.454  1.00  0.00     0.088 N 
HETATM    6  C   LIG     1      16.810  35.300  21.659  1.00  0.00     0.310 C 
HETATM    7  C   LIG     1      18.156  36.925  20.485  1.00  0.00     0.316 C 
ENDROOT
BRANCH   1   8
HETATM    8  C   LIG     1      19.283  38.817  19.131  1.00  0.00     0.290 C 
HETATM    9  O   LIG     1      20.408  39.371  19.268  1.00  0.00    -0.260 OA
BRANCH   8  10
HETATM   10  O   LIG     1      18.756  38.612  17.851  1.00  0.00    -0.323 OA
HETATM   11  C   LIG     1      18.755  39.622  16.849  1.00  0.00     0.213 C 
ENDBRANCH   8  10
ENDBRANCH   1   8
TORSDOF 2
ENDMDL
MODEL 4
REMARK VINA RESULT:      -5.7      2.962      3.988
REMARK  2 active torsions:
REMARK  status: ('A' for Active; 'I' for Inactive)
REMARK    1  A    between atoms: C_2  and  C_3 
REMARK    2  A    between atoms: C_2  and  O_10 
ROOT
HETATM    1  C   LIG     1      17.108  37.509  23.496  1.00  0.00     0.041 C 
HETATM    2  C   LIG     1      16.890  36.345  22.856  1.00  0.00    -0.010 C 
HETATM    3  C   LIG     1      17.124  35.010  23.507  1.00  0.00     0.058 C 
HETATM    4  C   LIG     1      17.184  35.120  25.030  1.00  0.00     0.276 C 
HETATM    5  N   LIG     1      18.060  36.243  25.404  1.00  0.00     0.088 N 
HETATM    6  C   LIG     1      18.275  36.255  26.859  1.00  0.00     0.310 C 
HETATM    7  C   LIG     1      17.455  37.518  24.972  1.00  0.00     0.316 C 
ENDROOT
BRANCH   1   8
HETATM    8  C   LIG     1      16.893  38.795  22.795  1.00  0.00     0.290 C 
HETATM    9  O   LIG     1      15.734  39.291  22.737  1.00  0.00    -0.260 OA
BRANCH   8  10
HETATM   10  O   LIG     1      17.970  39.462  22.198  1.00  0.00    -0.323 OA
HETATM   11  C   LIG     1      18.505  39.080  20.937  1.00  0.00     0.213 C 
ENDBRANCH   8  10
ENDBRANCH   1   8
TORSDOF 2
ENDMDL
MODEL 5
REMARK VINA RESULT:      -5.5      2.932      4.508
REMARK  2 active torsions:
REMARK  status: ('A' for Active; 'I' for Inactive)
REMARK    1  A    between atoms: C_2  and  C_3 
REMARK    2  A    between atoms: C_2  and  O_10 
ROOT
HETATM    1  C   LIG     1      17.695  36.955  21.214  1.00  0.00     0.041 C 
HETATM    2  C   LIG     1      17.359  37.917  22.093  1.00  0.00    -0.010 C 
HETATM    3  C   LIG     1      18.002  39.276  22.086  1.00  0.00     0.058 C 
HETATM    4  C   LIG     1      18.698  39.572  20.757  1.00  0.00     0.276 C 
HETATM    5  N   LIG     1      19.513  38.411  20.364  1.00  0.00     0.088 N 
HETATM    6  C   LIG     1      20.328  38.741  19.185  1.00  0.00     0.310 C 
HETATM    7  C   LIG     1      18.637  37.260  20.067  1.00  0.00     0.316 C 
ENDROOT
BRANCH   1   8
HETATM    8  C   LIG     1      17.052  35.623  21.289  1.00  0.00     0.290 C 
HETATM    9  O   LIG     1      17.054  34.987  22.379  1.00  0.00    -0.260 OA
BRANCH   8  10
HETATM   10  O   LIG     1      16.445  35.068  20.156  1.00  0.00    -0.323 OA
HETATM   11  C   LIG     1      15.665  33.880  20.207  1.00  0.00     0.213 C 
ENDBRANCH   8  10
ENDBRANCH   1   8
TORSDOF 2
ENDMDL
MODEL 6
REMARK VINA RESULT:      -5.4      3.153      4.510
REMARK  2 active torsions:
REMARK  status: ('A' for Active; 'I' for Inactive)
REMARK    1  A    between atoms: C_2  and  C_3 
REMARK    2  A    between atoms: C_2  and  O_10 
ROOT
HETATM    1  C   LIG     1      16.749  36.424  22.893  1.00  0.00     0.041 C 
HETATM    2  C   LIG     1      16.827  37.728  23.216  1.00  0.00    -0.010 C 
HETATM    3  C   LIG     1      17.251  38.198  24.580  1.00  0.00     0.058 C 
HETATM    4  C   LIG     1      17.986  37.106  25.356  1.00  0.00     0.276 C 
HETATM    5  N   LIG     1      17.235  35.844  25.255  1.00  0.00     0.088 N 
HETATM    6  C   LIG     1      17.828  34.830  26.140  1.00  0.00     0.310 C 
HETATM    7  C   LIG     1      17.245  35.365  23.858  1.00  0.00     0.316 C 
ENDROOT
BRANCH   1   8
HETATM    8  C   LIG     1      16.293  36.017  21.544  1.00  0.00     0.290 C 
HETATM    9  O   LIG     1      15.058  35.925  21.303  1.00  0.00    -0.260 OA
BRANCH   8  10
HETATM   10  O   LIG     1      17.225  35.735  20.539  1.00  0.00    -0.323 OA
HETATM   11  C   LIG     1      18.239  36.654  20.153  1.00  0.00     0.213 C 
ENDBRANCH   8  10
ENDBRANCH   1   8
TORSDOF 2
ENDMDL
MODEL 7
REMARK VINA RESULT:      -5.4      3.053      4.789
REMARK  2 active torsions:
REMARK  status: ('A' for Active; 'I' for Inactive)
REMARK    1  A    between atoms: C_2  and  C_3 
REMARK    2  A    between atoms: C_2  and  O_10 
ROOT
HETATM    1  C   LIG     1      16.897  37.486  22.254  1.00  0.00     0.041 C 
HETATM    2  C   LIG     1      17.898  37.748  21.393  1.00  0.00    -0.010 C 
HETATM    3  C   LIG     1      18.242  36.831  20.252  1.00  0.00     0.058 C 
HETATM    4  C   LIG     1      17.098  35.870  19.928  1.00  0.00     0.276 C 
HETATM    5  N   LIG     1      16.591  35.275  21.175  1.00  0.00     0.088 N 
HETATM    6  C   LIG     1      15.615  34.217  20.872  1.00  0.00     0.310 C 
HETATM    7  C   LIG     1      15.963  36.317  22.011  1.00  0.00     0.316 C 
ENDROOT
BRANCH   1   8
HETATM    8  C   LIG     1      16.625  38.408  23.380  1.00  0.00     0.290 C 
HETATM    9  O   LIG     1      16.582  39.653  23.175  1.00  0.00    -0.260 OA
BRANCH   8  10
HETATM   10  O   LIG     1      16.414  37.905  24.669  1.00  0.00    -0.323 OA
HETATM   11  C   LIG     1      17.482  37.530  25.531  1.00  0.00     0.213 C 
ENDBRANCH   8  10
ENDBRANCH   1   8
TORSDOF 2
ENDMDL
MODEL 8
REMARK VINA RESULT:      -5.3      2.783      4.161
REMARK  2 active torsions:
REMARK  status: ('A' for Active; 'I' for Inactive)
REMARK    1  A    between atoms: C_2  and  C_3 
REMARK    2  A    between atoms: C_2  and  O_10 
ROOT
HETATM    1  C   LIG     1      17.324  36.843  21.660  1.00  0.00     0.041 C 
HETATM    2  C   LIG     1      17.926  37.914  21.112  1.00  0.00    -0.010 C 
HETATM    3  C   LIG     1      18.337  39.112  21.923  1.00  0.00     0.058 C 
HETATM    4  C   LIG     1      18.409  38.793  23.416  1.00  0.00     0.276 C 
HETATM    5  N   LIG     1      17.198  38.059  23.818  1.00  0.00     0.088 N 
HETATM    6  C   LIG     1      17.164  37.901  25.280  1.00  0.00     0.310 C 
HETATM    7  C   LIG     1      17.173  36.735  23.165  1.00  0.00     0.316 C 
ENDROOT
BRANCH   1   8
HETATM    8  C   LIG     1      16.910  35.705  20.808  1.00  0.00     0.290 C 
HETATM    9  O   LIG     1      17.092  35.758  19.561  1.00  0.00    -0.260 OA
BRANCH   8  10
HETATM   10  O   LIG     1      16.320  34.572  21.381  1.00  0.00    -0.323 OA
HETATM   11  C   LIG     1      14.921  34.322  21.321  1.00  0.00     0.213 C 
ENDBRANCH   8  10
ENDBRANCH   1   8
TORSDOF 2
ENDMDL
MODEL 9
REMARK VINA RESULT:      -5.3      3.538      4.676
REMARK  2 active torsions:
REMARK  status: ('A' for Active; 'I' for Inactive)
REMARK    1  A    between atoms: C_2  and  C_3 
REMARK    2  A    between atoms: C_2  and  O_10 
ROOT
HETATM    1  C   LIG     1      16.583  35.627  21.958  1.00  0.00     0.041 C 
HETATM    2  C   LIG     1      16.870  34.961  23.091  1.00  0.00    -0.010 C 
HETATM    3  C   LIG     1      17.324  35.658  24.344  1.00  0.00     0.058 C 
HETATM    4  C   LIG     1      16.990  37.149  24.319  1.00  0.00     0.276 C 
HETATM    5  N   LIG     1      17.387  37.717  23.021  1.00  0.00     0.088 N 
HETATM    6  C   LIG     1      17.241  39.181  23.042  1.00  0.00     0.310 C 
HETATM    7  C   LIG     1      16.555  37.142  21.945  1.00  0.00     0.316 C 
ENDROOT
BRANCH   1   8
HETATM    8  C   LIG     1      16.173  34.885  20.743  1.00  0.00     0.290 C 
HETATM    9  O   LIG     1      16.542  35.292  19.607  1.00  0.00    -0.260 OA
BRANCH   8  10
HETATM   10  O   LIG     1      15.379  33.737  20.852  1.00  0.00    -0.323 OA
HETATM   11  C   LIG     1      15.396  32.698  19.882  1.00  0.00     0.213 C 
ENDBRANCH   8  10
ENDBRANCH   1   8
TORSDOF 2
ENDMDL
MODEL 10
REMARK VINA RESULT:      -5.2      2.944      4.101
REMARK  2 active torsions:
REMARK  status: ('A' for Active; 'I' for Inactive)
REMARK    1  A    between atoms: C_2  and  C_3 
REMARK    2  A    between atoms: C_2  and  O_10 
ROOT
HETATM    1  C   LIG     1      16.720  35.982  22.607  1.00  0.00     0.041 C 
HETATM    2  C   LIG     1      17.059  34.877  23.297  1.00  0.00    -0.010 C 
HETATM    3  C   LIG     1      17.557  34.932  24.715  1.00  0.00     0.058 C 
HETATM    4  C   LIG     1      17.211  36.258  25.390  1.00  0.00     0.276 C 
HETATM    5  N   LIG     1      17.551  37.370  24.487  1.00  0.00     0.088 N 
HETATM    6  C   LIG     1      17.394  38.656  25.185  1.00  0.00     0.310 C 
HETATM    7  C   LIG     1      16.680  37.332  23.295  1.00  0.00     0.316 C 
ENDROOT
BRANCH   1   8
HETATM    8  C   LIG     1      16.267  35.871  21.202  1.00  0.00     0.290 C 
HETATM    9  O   LIG     1      15.034  35.814  20.944  1.00  0.00    -0.260 OA
BRANCH   8  10
HETATM   10  O   LIG     1      17.202  35.831  20.161  1.00  0.00    -0.323 OA
HETATM   11  C   LIG     1      18.316  36.713  20.094  1.00  0.00     0.213 C 
ENDBRANCH   8  10
ENDBRANCH   1   8
TORSDOF 2
ENDMDL
MODEL 11
REMARK VINA RESULT:      -5.2      3.628      5.531
REMARK  2 active torsions:
REMARK  status: ('A' for Active; 'I' for Inactive)
REMARK    1  A    between atoms: C_2  and  C_3 
REMARK    2  A    between atoms: C_2  and  O_10 
ROOT
HETATM    1  C   LIG     1      17.587  37.803  23.595  1.00  0.00     0.041 C 
HETATM    2  C   LIG     1      18.343  38.813  23.129  1.00  0.00    -0.010 C 
HETATM    3  C   LIG     1      18.724  38.935  21.679  1.00  0.00     0.058 C 
HETATM    4  C   LIG     1      17.821  38.091  20.780  1.00  0.00     0.276 C 
HETATM    5  N   LIG     1      17.680  36.743  21.355  1.00  0.00     0.088 N 
HETATM    6  C   LIG     1      16.966  35.864  20.417  1.00  0.00     0.310 C 
HETATM    7  C   LIG     1      16.949  36.817  22.636  1.00  0.00     0.316 C 
ENDROOT
BRANCH   1   8
HETATM    8  C   LIG     1      17.271  37.715  25.039  1.00  0.00     0.290 C 
HETATM    9  O   LIG     1      16.931  38.753  25.670  1.00  0.00    -0.260 OA
BRANCH   8  10
HETATM   10  O   LIG     1      17.348  36.485  25.704  1.00  0.00    -0.323 OA
HETATM   11  C   LIG     1      18.307  36.222  26.722  1.00  0.00     0.213 C 
ENDBRANCH   8  10
ENDBRANCH   1   8
TORSDOF 2
ENDMDL
MODEL 12
REMARK VINA RESULT:      -5.2      7.889      9.364
REMARK  2 active torsions:
REMARK  status: ('A' for Active; 'I' for Inactive)
REMARK    1  A    between atoms: C_2  and  C_3 
REMARK    2  A    between atoms: C_2  and  O_10 
ROOT
HETATM    1  C   LIG     1      14.979  31.908  16.387  1.00  0.00     0.041 C 
HETATM    2  C   LIG     1      14.192  30.905  15.958  1.00  0.00    -0.010 C 
HETATM    3  C   LIG     1      14.238  30.388  14.547  1.00  0.00     0.058 C 
HETATM    4  C   LIG     1      15.529  30.792  13.834  1.00  0.00     0.276 C 
HETATM    5  N   LIG     1      15.785  32.223  14.063  1.00  0.00     0.088 N 
HETATM    6  C   LIG     1      16.920  32.672  13.241  1.00  0.00     0.310 C 
HETATM    7  C   LIG     1      16.072  32.460  15.492  1.00  0.00     0.316 C 
ENDROOT
BRANCH   1   8
HETATM    8  C   LIG     1      14.867  32.400  17.779  1.00  0.00     0.290 C 
HETATM    9  O   LIG     1      15.333  33.532  18.083  1.00  0.00    -0.260 OA
BRANCH   8  10
HETATM   10  O   LIG     1      14.246  31.614  18.757  1.00  0.00    -0.323 OA
HETATM   11  C   LIG     1      14.845  31.343  20.018  1.00  0.00     0.213 C 
ENDBRANCH   8  10
ENDBRANCH   1   8
TORSDOF 2
ENDMDL
MODEL 13
REMARK VINA RESULT:      -5.1      1.459      2.003
REMARK  2 active torsions:
REMARK  status: ('A' for Active; 'I' for Inactive)
REMARK    1  A    between atoms: C_2  and  C_3 
REMARK    2  A    between atoms: C_2  and  O_10 
ROOT
HETATM    1  C   LIG     1      17.847  37.007  20.910  1.00  0.00     0.041 C 
HETATM    2  C   LIG     1      17.406  35.746  21.072  1.00  0.00    -0.010 C 
HETATM    3  C   LIG     1      16.868  35.240  22.381  1.00  0.00     0.058 C 
HETATM    4  C   LIG     1      16.470  36.384  23.314  1.00  0.00     0.276 C 
HETATM    5  N   LIG     1      17.546  37.388  23.342  1.00  0.00     0.088 N 
HETATM    6  C   LIG     1      17.264  38.405  24.367  1.00  0.00     0.310 C 
HETATM    7  C   LIG     1      17.670  38.028  22.017  1.00  0.00     0.316 C 
ENDROOT
BRANCH   1   8
HETATM    8  C   LIG     1      18.398  37.441  19.606  1.00  0.00     0.290 C 
HETATM    9  O   LIG     1      18.284  36.692  18.597  1.00  0.00    -0.260 OA
BRANCH   8  10
HETATM   10  O   LIG     1      19.044  38.678  19.490  1.00  0.00    -0.323 OA
HETATM   11  C   LIG     1      20.458  38.800  19.401  1.00  0.00     0.213 C 
ENDBRANCH   8  10
ENDBRANCH   1   8
TORSDOF 2
ENDMDL
MODEL 14
REMARK VINA RESULT:      -5.1      7.686      8.739
REMARK  2 active torsions:
REMARK  status: ('A' for Active; 'I' for Inactive)
REMARK    1  A    between atoms: C_2  and  C_3 
REMARK    2  A    between atoms: C_2  and  O_10 
ROOT
HETATM    1  C   LIG     1      15.761  32.620  15.558  1.00  0.00     0.041 C 
HETATM    2  C   LIG     1      14.976  32.941  16.603  1.00  0.00    -0.010 C 
HETATM    3  C   LIG     1      13.768  32.131  16.984  1.00  0.00     0.058 C 
HETATM    4  C   LIG     1      13.806  30.730  16.374  1.00  0.00     0.276 C 
HETATM    5  N   LIG     1      14.161  30.826  14.949  1.00  0.00     0.088 N 
HETATM    6  C   LIG     1      14.027  29.511  14.304  1.00  0.00     0.310 C 
HETATM    7  C   LIG     1      15.545  31.320  14.809  1.00  0.00     0.316 C 
ENDROOT
BRANCH   1   8
HETATM    8  C   LIG     1      16.920  33.473  15.208  1.00  0.00     0.290 C 
HETATM    9  O   LIG     1      16.939  34.682  15.569  1.00  0.00    -0.260 OA
BRANCH   8  10
HETATM   10  O   LIG     1      17.991  32.944  14.478  1.00  0.00    -0.323 OA
HETATM   11  C   LIG     1      18.569  33.616  13.367  1.00  0.00     0.213 C 
ENDBRANCH   8  10
ENDBRANCH   1   8
TORSDOF 2
ENDMDL
MODEL 15
REMARK VINA RESULT:      -5.1      9.146     10.353
REMARK  2 active torsions:
REMARK  status: ('A' for Active; 'I' for Inactive)
REMARK    1  A    between atoms: C_2  and  C_3 
REMARK    2  A    between atoms: C_2  and  O_10 
ROOT
HETATM    1  C   LIG     1      14.708  30.786  15.064  1.00  0.00     0.041 C 
HETATM    2  C   LIG     1      14.065  31.090  16.206  1.00  0.00    -0.010 C 
HETATM    3  C   LIG     1      14.461  32.254  17.070  1.00  0.00     0.058 C 
HETATM    4  C   LIG     1      15.322  33.262  16.309  1.00  0.00     0.276 C 
HETATM    5  N   LIG     1      16.378  32.547  15.574  1.00  0.00     0.088 N 
HETATM    6  C   LIG     1      17.323  33.506  14.982  1.00  0.00     0.310 C 
HETATM    7  C   LIG     1      15.775  31.712  14.515  1.00  0.00     0.316 C 
ENDROOT
BRANCH   1   8
HETATM    8  C   LIG     1      14.296  29.606  14.269  1.00  0.00     0.290 C 
HETATM    9  O   LIG     1      13.090  29.234  14.279  1.00  0.00    -0.260 OA
BRANCH   8  10
HETATM   10  O   LIG     1      15.238  28.904  13.508  1.00  0.00    -0.323 OA
HETATM   11  C   LIG     1      15.342  27.485  13.534  1.00  0.00     0.213 C 
ENDBRANCH   8  10
ENDBRANCH   1   8
TORSDOF 2
ENDMDL
MODEL 16
REMARK VINA RESULT:      -5.0      8.060      8.880
REMARK  2 active torsions:
REMARK  status: ('A' for Active; 'I' for Inactive)
REMARK    1  A    between atoms: C_2  and  C_3 
REMARK    2  A    between atoms: C_2  and  O_10 
ROOT
HETATM    1  C   LIG     1      16.044  32.157  14.432  1.00  0.00     0.041 C 
HETATM    2  C   LIG     1      15.609  31.085  13.744  1.00  0.00    -0.010 C 
HETATM    3  C   LIG     1      14.593  30.126  14.302  1.00  0.00     0.058 C 
HETATM    4  C   LIG     1      13.818  30.734  15.471  1.00  0.00     0.276 C 
HETATM    5  N   LIG     1      14.760  31.373  16.403  1.00  0.00     0.088 N 
HETATM    6  C   LIG     1      14.055  31.804  17.620  1.00  0.00     0.310 C 
HETATM    7  C   LIG     1      15.402  32.533  15.752  1.00  0.00     0.316 C 
ENDROOT
BRANCH   1   8
HETATM    8  C   LIG     1      17.072  33.049  13.847  1.00  0.00     0.290 C 
HETATM    9  O   LIG     1      17.256  34.197  14.336  1.00  0.00    -0.260 OA
BRANCH   8  10
HETATM   10  O   LIG     1      17.837  32.622  12.755  1.00  0.00    -0.323 OA
HETATM   11  C   LIG     1      18.850  33.428  12.166  1.00  0.00     0.213 C 
ENDBRANCH   8  10
ENDBRANCH   1   8
TORSDOF 2
ENDMDL
MODEL 17
REMARK VINA RESULT:      -4.9      9.026     10.066
REMARK  2 active torsions:
REMARK  status: ('A' for Active; 'I' for Inactive)
REMARK    1  A    between atoms: C_2  and  C_3 
REMARK    2  A    between atoms: C_2  and  O_10 
ROOT
HETATM    1  C   LIG     1      14.739  30.783  15.049  1.00  0.00     0.041 C 
HETATM    2  C   LIG     1      13.543  30.322  15.457  1.00  0.00    -0.010 C 
HETATM    3  C   LIG     1      12.733  31.007  16.522  1.00  0.00     0.058 C 
HETATM    4  C   LIG     1      13.182  32.453  16.738  1.00  0.00     0.276 C 
HETATM    5  N   LIG     1      14.650  32.499  16.838  1.00  0.00     0.088 N 
HETATM    6  C   LIG     1      15.089  33.849  17.223  1.00  0.00     0.310 C 
HETATM    7  C   LIG     1      15.253  32.121  15.544  1.00  0.00     0.316 C 
ENDROOT
BRANCH   1   8
HETATM    8  C   LIG     1      15.509  30.048  14.020  1.00  0.00     0.290 C 
HETATM    9  O   LIG     1      15.840  30.630  12.951  1.00  0.00    -0.260 OA
BRANCH   8  10
HETATM   10  O   LIG     1      15.871  28.712  14.231  1.00  0.00    -0.323 OA
HETATM   11  C   LIG     1      15.284  27.636  13.510  1.00  0.00     0.213 C 
ENDBRANCH   8  10
ENDBRANCH   1   8
TORSDOF 2
ENDMDL
MODEL 18
REMARK VINA RESULT:      -4.9      7.677      8.523
REMARK  2 active torsions:
REMARK  status: ('A' for Active; 'I' for Inactive)
REMARK    1  A    between atoms: C_2  and  C_3 
REMARK    2  A    between atoms: C_2  and  O_10 
ROOT
HETATM    1  C   LIG     1      15.330  31.857  15.074  1.00  0.00     0.041 C 
HETATM    2  C   LIG     1      14.344  30.941  15.073  1.00  0.00    -0.010 C 
HETATM    3  C   LIG     1      13.525  30.635  16.297  1.00  0.00     0.058 C 
HETATM    4  C   LIG     1      13.625  31.746  17.341  1.00  0.00     0.276 C 
HETATM    5  N   LIG     1      15.036  32.123  17.521  1.00  0.00     0.088 N 
HETATM    6  C   LIG     1      15.171  33.060  18.648  1.00  0.00     0.310 C 
HETATM    7  C   LIG     1      15.553  32.742  16.284  1.00  0.00     0.316 C 
ENDROOT
BRANCH   1   8
HETATM    8  C   LIG     1      16.127  32.093  13.848  1.00  0.00     0.290 C 
HETATM    9  O   LIG     1      16.350  31.140  13.053  1.00  0.00    -0.260 OA
BRANCH   8  10
HETATM   10  O   LIG     1      16.632  33.369  13.570  1.00  0.00    -0.323 OA
HETATM   11  C   LIG     1      18.021  33.671  13.619  1.00  0.00     0.213 C 
ENDBRANCH   8  10
ENDBRANCH   1   8
TORSDOF 2
ENDMDL
MODEL 19
REMARK VINA RESULT:      -4.5      3.192      4.725
REMARK  2 active torsions:
REMARK  status: ('A' for Active; 'I' for Inactive)
REMARK    1  A    between atoms: C_2  and  C_3 
REMARK    2  A    between atoms: C_2  and  O_10 
ROOT
HETATM    1  C   LIG     1      17.053  38.025  22.020  1.00  0.00     0.041 C 
HETATM    2  C   LIG     1      17.575  39.241  22.267  1.00  0.00    -0.010 C 
HETATM    3  C   LIG     1      18.785  39.761  21.542  1.00  0.00     0.058 C 
HETATM    4  C   LIG     1      19.051  38.991  20.249  1.00  0.00     0.276 C 
HETATM    5  N   LIG     1      18.964  37.545  20.515  1.00  0.00     0.088 N 
HETATM    6  C   LIG     1      19.392  36.785  19.330  1.00  0.00     0.310 C 
HETATM    7  C   LIG     1      17.578  37.183  20.874  1.00  0.00     0.316 C 
ENDROOT
BRANCH   1   8
HETATM    8  C   LIG     1      15.879  37.550  22.789  1.00  0.00     0.290 C 
HETATM    9  O   LIG     1      15.838  37.721  24.038  1.00  0.00    -0.260 OA
BRANCH   8  10
HETATM   10  O   LIG     1      14.819  36.912  22.134  1.00  0.00    -0.323 OA
HETATM   11  C   LIG     1      14.930  35.604  21.588  1.00  0.00     0.213 C 
ENDBRANCH   8  10
ENDBRANCH   1   8
TORSDOF 2
ENDMDL
MODEL 20
REMARK VINA RESULT:      -4.5     10.040     11.136
REMARK  2 active torsions:
REMARK  status: ('A' for Active; 'I' for Inactive)
REMARK    1  A    between atoms: C_2  and  C_3 
REMARK    2  A    between atoms: C_2  and  O_10 
ROOT
HETATM    1  C   LIG     1      14.786  30.056  14.343  1.00  0.00     0.041 C 
HETATM    2  C   LIG     1      15.583  30.751  13.512  1.00  0.00    -0.010 C 
HETATM    3  C   LIG     1      16.058  32.144  13.825  1.00  0.00     0.058 C 
HETATM    4  C   LIG     1      15.920  32.472  15.311  1.00  0.00     0.276 C 
HETATM    5  N   LIG     1      14.585  32.067  15.780  1.00  0.00     0.088 N 
HETATM    6  C   LIG     1      14.367  32.536  17.157  1.00  0.00     0.310 C 
HETATM    7  C   LIG     1      14.456  30.597  15.720  1.00  0.00     0.316 C 
ENDROOT
BRANCH   1   8
HETATM    8  C   LIG     1      14.321  28.701  13.968  1.00  0.00     0.290 C 
HETATM    9  O   LIG     1      15.161  27.823  13.626  1.00  0.00    -0.260 OA
BRANCH   8  10
HETATM   10  O   LIG     1      12.956  28.391  13.992  1.00  0.00    -0.323 OA
HETATM   11  C   LIG     1      12.425  27.216  13.393  1.00  0.00     0.213 C 
ENDBRANCH   8  10
ENDBRANCH   1   8
TORSDOF 2
ENDMDL
