REMARK  2 active torsions:
REMARK  status: ('A' for Active; 'I' for Inactive)
REMARK    1  A    between atoms: C_2  and  C_3 
REMARK    2  A    between atoms: C_2  and  O_10 
ROOT
HETATM    1  C   LIG     1       0.528   0.016   0.189  1.00  0.00     0.041 C 
HETATM    2  C   LIG     1       0.202  -0.557   1.362  1.00  0.00    -0.010 C 
HETATM    3  C   LIG     1      -1.222  -0.697   1.824  1.00  0.00     0.058 C 
HETATM    4  C   LIG     1      -2.213  -0.547   0.670  1.00  0.00     0.276 C 
HETATM    5  N   LIG     1      -1.852   0.632  -0.134  1.00  0.00     0.088 N 
HETATM    6  C   LIG     1      -2.893   0.898  -1.139  1.00  0.00     0.310 C 
HETATM    7  C   LIG     1      -0.553   0.408  -0.799  1.00  0.00     0.316 C 
ENDROOT
BRANCH   1   8
HETATM    8  C   LIG     1       1.950   0.158  -0.200  1.00  0.00     0.290 C 
HETATM    9  O   LIG     1       2.245   0.601  -1.344  1.00  0.00    -0.260 OA
BRANCH   8  10
HETATM   10  O   LIG     1       2.965  -0.197   0.696  1.00  0.00    -0.323 OA
HETATM   11  C   LIG     1       4.346  -0.083   0.376  1.00  0.00     0.213 C 
ENDBRANCH   8  10
ENDBRANCH   1   8
TORSDOF 2
