REMARK  1 active torsions:
REMARK  status: ('A' for Active; 'I' for Inactive)
REMARK    1  A    between atoms: C_2  and  C_5 
ROOT
HETATM    1 CL   LIG     1       1.448  -0.209   1.533  1.00  0.00    -0.083 Cl
HETATM    2  C   LIG     1       0.709  -0.046  -0.083  1.00  0.00     0.200 C 
HETATM    3 CL   LIG     1       1.278   1.468  -0.838  1.00  0.00    -0.083 Cl
HETATM    4 CL   LIG     1       1.256  -1.411  -1.088  1.00  0.00    -0.083 Cl
ENDROOT
BRANCH   2   5
HETATM    5  C   LIG     1      -0.820  -0.066   0.012  1.00  0.00     0.173 C 
HETATM    6 CL   LIG     1      -1.454   1.277   1.007  1.00  0.00    -0.126 Cl
ENDBRANCH   2   5
TORSDOF 1
