MODEL 1
REMARK VINA RESULT:      -3.8      0.000      0.000
REMARK  1 active torsions:
REMARK  status: ('A' for Active; 'I' for Inactive)
REMARK    1  A    between atoms: C_2  and  C_5 
ROOT
HETATM    1 CL   LIG     1      14.897  35.811  21.365  1.00  0.00    -0.083 Cl
HETATM    2  C   LIG     1      16.496  36.301  21.986  1.00  0.00     0.200 C 
HETATM    3 CL   LIG     1      17.048  35.106  23.192  1.00  0.00    -0.083 Cl
HETATM    4 CL   LIG     1      17.649  36.296  20.628  1.00  0.00    -0.083 Cl
ENDROOT
BRANCH   2   5
HETATM    5  C   LIG     1      16.438  37.705  22.597  1.00  0.00     0.173 C 
HETATM    6 CL   LIG     1      17.596  38.828  21.827  1.00  0.00    -0.126 Cl
ENDBRANCH   2   5
TORSDOF 1
ENDMDL
MODEL 2
REMARK VINA RESULT:      -3.8      0.084      2.045
REMARK  1 active torsions:
REMARK  status: ('A' for Active; 'I' for Inactive)
REMARK    1  A    between atoms: C_2  and  C_5 
ROOT
HETATM    1 CL   LIG     1      17.039  35.096  23.204  1.00  0.00    -0.083 Cl
HETATM    2  C   LIG     1      16.499  36.288  21.991  1.00  0.00     0.200 C 
HETATM    3 CL   LIG     1      17.672  36.329  20.646  1.00  0.00    -0.083 Cl
HETATM    4 CL   LIG     1      14.927  35.756  21.345  1.00  0.00    -0.083 Cl
ENDROOT
BRANCH   2   5
HETATM    5  C   LIG     1      16.345  37.676  22.621  1.00  0.00     0.173 C 
HETATM    6 CL   LIG     1      17.464  38.873  21.905  1.00  0.00    -0.126 Cl
ENDBRANCH   2   5
TORSDOF 1
ENDMDL
MODEL 3
REMARK VINA RESULT:      -3.8      0.074      2.049
REMARK  1 active torsions:
REMARK  status: ('A' for Active; 'I' for Inactive)
REMARK    1  A    between atoms: C_2  and  C_5 
ROOT
HETATM    1 CL   LIG     1      17.663  36.315  20.621  1.00  0.00    -0.083 Cl
HETATM    2  C   LIG     1      16.484  36.312  21.960  1.00  0.00     0.200 C 
HETATM    3 CL   LIG     1      14.901  35.759  21.347  1.00  0.00    -0.083 Cl
HETATM    4 CL   LIG     1      17.041  35.154  23.193  1.00  0.00    -0.083 Cl
ENDROOT
BRANCH   2   5
HETATM    5  C   LIG     1      16.368  37.705  22.588  1.00  0.00     0.173 C 
HETATM    6 CL   LIG     1      17.611  38.831  21.970  1.00  0.00    -0.126 Cl
ENDBRANCH   2   5
TORSDOF 1
ENDMDL
MODEL 4
REMARK VINA RESULT:      -3.8      2.124      3.257
REMARK  1 active torsions:
REMARK  status: ('A' for Active; 'I' for Inactive)
REMARK    1  A    between atoms: C_2  and  C_5 
ROOT
HETATM    1 CL   LIG     1      17.173  35.647  23.413  1.00  0.00    -0.083 Cl
HETATM    2  C   LIG     1      16.930  37.412  23.499  1.00  0.00     0.200 C 
HETATM    3 CL   LIG     1      18.068  38.216  22.383  1.00  0.00    -0.083 Cl
HETATM    4 CL   LIG     1      15.271  37.775  22.961  1.00  0.00    -0.083 Cl
ENDROOT
BRANCH   2   5
HETATM    5  C   LIG     1      17.122  37.920  24.931  1.00  0.00     0.173 C 
HETATM    6 CL   LIG     1      18.362  36.987  25.820  1.00  0.00    -0.126 Cl
ENDBRANCH   2   5
TORSDOF 1
ENDMDL
MODEL 5
REMARK VINA RESULT:      -3.8      2.086      2.648
REMARK  1 active torsions:
REMARK  status: ('A' for Active; 'I' for Inactive)
REMARK    1  A    between atoms: C_2  and  C_5 
ROOT
HETATM    1 CL   LIG     1      15.228  37.777  22.854  1.00  0.00    -0.083 Cl
HETATM    2  C   LIG     1      16.856  37.371  23.460  1.00  0.00     0.200 C 
HETATM    3 CL   LIG     1      17.146  35.623  23.239  1.00  0.00    -0.083 Cl
HETATM    4 CL   LIG     1      18.053  38.262  22.487  1.00  0.00    -0.083 Cl
ENDROOT
BRANCH   2   5
HETATM    5  C   LIG     1      17.004  37.765  24.933  1.00  0.00     0.173 C 
HETATM    6 CL   LIG     1      18.444  37.025  25.691  1.00  0.00    -0.126 Cl
ENDBRANCH   2   5
TORSDOF 1
ENDMDL
MODEL 6
REMARK VINA RESULT:      -3.7      1.641      3.154
REMARK  1 active torsions:
REMARK  status: ('A' for Active; 'I' for Inactive)
REMARK    1  A    between atoms: C_2  and  C_5 
ROOT
HETATM    1 CL   LIG     1      18.013  38.353  22.362  1.00  0.00    -0.083 Cl
HETATM    2  C   LIG     1      16.905  37.108  23.000  1.00  0.00     0.200 C 
HETATM    3 CL   LIG     1      15.220  37.662  22.795  1.00  0.00    -0.083 Cl
HETATM    4 CL   LIG     1      17.125  35.622  22.044  1.00  0.00    -0.083 Cl
ENDROOT
BRANCH   2   5
HETATM    5  C   LIG     1      17.206  36.814  24.473  1.00  0.00     0.173 C 
HETATM    6 CL   LIG     1      17.372  35.063  24.793  1.00  0.00    -0.126 Cl
ENDBRANCH   2   5
TORSDOF 1
ENDMDL
MODEL 7
REMARK VINA RESULT:      -3.7      1.180      2.108
REMARK  1 active torsions:
REMARK  status: ('A' for Active; 'I' for Inactive)
REMARK    1  A    between atoms: C_2  and  C_5 
ROOT
HETATM    1 CL   LIG     1      14.894  35.797  21.329  1.00  0.00    -0.083 Cl
HETATM    2  C   LIG     1      16.505  36.297  21.911  1.00  0.00     0.200 C 
HETATM    3 CL   LIG     1      16.389  37.928  22.626  1.00  0.00    -0.083 Cl
HETATM    4 CL   LIG     1      17.016  35.163  23.186  1.00  0.00    -0.083 Cl
ENDROOT
BRANCH   2   5
HETATM    5  C   LIG     1      17.528  36.274  20.771  1.00  0.00     0.173 C 
HETATM    6 CL   LIG     1      18.422  37.816  20.631  1.00  0.00    -0.126 Cl
ENDBRANCH   2   5
TORSDOF 1
ENDMDL
MODEL 8
REMARK VINA RESULT:      -3.7      3.396      4.687
REMARK  1 active torsions:
REMARK  status: ('A' for Active; 'I' for Inactive)
REMARK    1  A    between atoms: C_2  and  C_5 
ROOT
HETATM    1 CL   LIG     1      21.017  38.506  19.451  1.00  0.00    -0.083 Cl
HETATM    2  C   LIG     1      19.235  38.548  19.358  1.00  0.00     0.200 C 
HETATM    3 CL   LIG     1      18.747  39.177  17.760  1.00  0.00    -0.083 Cl
HETATM    4 CL   LIG     1      18.628  36.881  19.510  1.00  0.00    -0.083 Cl
ENDROOT
BRANCH   2   5
HETATM    5  C   LIG     1      18.650  39.407  20.483  1.00  0.00     0.173 C 
HETATM    6 CL   LIG     1      17.659  38.448  21.621  1.00  0.00    -0.126 Cl
ENDBRANCH   2   5
TORSDOF 1
ENDMDL
MODEL 9
REMARK VINA RESULT:      -3.7      3.407      4.280
REMARK  1 active torsions:
REMARK  status: ('A' for Active; 'I' for Inactive)
REMARK    1  A    between atoms: C_2  and  C_5 
ROOT
HETATM    1 CL   LIG     1      18.623  36.858  19.453  1.00  0.00    -0.083 Cl
HETATM    2  C   LIG     1      19.233  38.532  19.345  1.00  0.00     0.200 C 
HETATM    3 CL   LIG     1      21.015  38.513  19.435  1.00  0.00    -0.083 Cl
HETATM    4 CL   LIG     1      18.760  39.198  17.762  1.00  0.00    -0.083 Cl
ENDROOT
BRANCH   2   5
HETATM    5  C   LIG     1      18.641  39.401  20.459  1.00  0.00     0.173 C 
HETATM    6 CL   LIG     1      17.829  38.426  21.719  1.00  0.00    -0.126 Cl
ENDBRANCH   2   5
TORSDOF 1
ENDMDL
MODEL 10
REMARK VINA RESULT:      -3.7      1.485      3.029
REMARK  1 active torsions:
REMARK  status: ('A' for Active; 'I' for Inactive)
REMARK    1  A    between atoms: C_2  and  C_5 
ROOT
HETATM    1 CL   LIG     1      17.056  35.119  23.275  1.00  0.00    -0.083 Cl
HETATM    2  C   LIG     1      16.367  36.158  21.999  1.00  0.00     0.200 C 
HETATM    3 CL   LIG     1      15.819  37.693  22.726  1.00  0.00    -0.083 Cl
HETATM    4 CL   LIG     1      17.653  36.525  20.823  1.00  0.00    -0.083 Cl
ENDROOT
BRANCH   2   5
HETATM    5  C   LIG     1      15.211  35.451  21.284  1.00  0.00     0.173 C 
HETATM    6 CL   LIG     1      15.718  33.903  20.546  1.00  0.00    -0.126 Cl
ENDBRANCH   2   5
TORSDOF 1
ENDMDL
MODEL 11
REMARK VINA RESULT:      -3.6      1.677      2.515
REMARK  1 active torsions:
REMARK  status: ('A' for Active; 'I' for Inactive)
REMARK    1  A    between atoms: C_2  and  C_5 
ROOT
HETATM    1 CL   LIG     1      17.733  37.824  24.270  1.00  0.00    -0.083 Cl
HETATM    2  C   LIG     1      16.966  37.155  22.804  1.00  0.00     0.200 C 
HETATM    3 CL   LIG     1      16.987  35.372  22.893  1.00  0.00    -0.083 Cl
HETATM    4 CL   LIG     1      15.268  37.693  22.767  1.00  0.00    -0.083 Cl
ENDROOT
BRANCH   2   5
HETATM    5  C   LIG     1      17.682  37.646  21.541  1.00  0.00     0.173 C 
HETATM    6 CL   LIG     1      18.344  39.294  21.736  1.00  0.00    -0.126 Cl
ENDBRANCH   2   5
TORSDOF 1
ENDMDL
MODEL 12
REMARK VINA RESULT:      -3.6      3.373      4.711
REMARK  1 active torsions:
REMARK  status: ('A' for Active; 'I' for Inactive)
REMARK    1  A    between atoms: C_2  and  C_5 
ROOT
HETATM    1 CL   LIG     1      20.959  38.519  19.478  1.00  0.00    -0.083 Cl
HETATM    2  C   LIG     1      19.184  38.422  19.321  1.00  0.00     0.200 C 
HETATM    3 CL   LIG     1      18.428  39.301  20.678  1.00  0.00    -0.083 Cl
HETATM    4 CL   LIG     1      18.713  39.226  17.803  1.00  0.00    -0.083 Cl
ENDROOT
BRANCH   2   5
HETATM    5  C   LIG     1      18.718  36.963  19.289  1.00  0.00     0.173 C 
HETATM    6 CL   LIG     1      17.765  36.526  20.737  1.00  0.00    -0.126 Cl
ENDBRANCH   2   5
TORSDOF 1
ENDMDL
MODEL 13
REMARK VINA RESULT:      -3.6      1.833      3.300
REMARK  1 active torsions:
REMARK  status: ('A' for Active; 'I' for Inactive)
REMARK    1  A    between atoms: C_2  and  C_5 
ROOT
HETATM    1 CL   LIG     1      15.192  37.774  22.805  1.00  0.00    -0.083 Cl
HETATM    2  C   LIG     1      16.879  37.261  23.080  1.00  0.00     0.200 C 
HETATM    3 CL   LIG     1      17.943  38.095  21.914  1.00  0.00    -0.083 Cl
HETATM    4 CL   LIG     1      17.354  37.758  24.723  1.00  0.00    -0.083 Cl
ENDROOT
BRANCH   2   5
HETATM    5  C   LIG     1      17.015  35.740  22.950  1.00  0.00     0.173 C 
HETATM    6 CL   LIG     1      17.317  34.951  24.525  1.00  0.00    -0.126 Cl
ENDBRANCH   2   5
TORSDOF 1
ENDMDL
MODEL 14
REMARK VINA RESULT:      -3.6      3.365      4.666
REMARK  1 active torsions:
REMARK  status: ('A' for Active; 'I' for Inactive)
REMARK    1  A    between atoms: C_2  and  C_5 
ROOT
HETATM    1 CL   LIG     1      18.692  39.248  17.811  1.00  0.00    -0.083 Cl
HETATM    2  C   LIG     1      19.178  38.416  19.312  1.00  0.00     0.200 C 
HETATM    3 CL   LIG     1      20.952  38.515  19.489  1.00  0.00    -0.083 Cl
HETATM    4 CL   LIG     1      18.432  39.265  20.689  1.00  0.00    -0.083 Cl
ENDROOT
BRANCH   2   5
HETATM    5  C   LIG     1      18.712  36.956  19.303  1.00  0.00     0.173 C 
HETATM    6 CL   LIG     1      17.750  36.544  20.752  1.00  0.00    -0.126 Cl
ENDBRANCH   2   5
TORSDOF 1
ENDMDL
MODEL 15
REMARK VINA RESULT:      -3.5      1.357      2.758
REMARK  1 active torsions:
REMARK  status: ('A' for Active; 'I' for Inactive)
REMARK    1  A    between atoms: C_2  and  C_5 
ROOT
HETATM    1 CL   LIG     1      15.253  37.779  22.728  1.00  0.00    -0.083 Cl
HETATM    2  C   LIG     1      16.925  37.157  22.676  1.00  0.00     0.200 C 
HETATM    3 CL   LIG     1      18.047  38.514  22.384  1.00  0.00    -0.083 Cl
HETATM    4 CL   LIG     1      17.307  36.448  24.265  1.00  0.00    -0.083 Cl
ENDROOT
BRANCH   2   5
HETATM    5  C   LIG     1      17.074  36.084  21.593  1.00  0.00     0.173 C 
HETATM    6 CL   LIG     1      18.179  36.594  20.283  1.00  0.00    -0.126 Cl
ENDBRANCH   2   5
TORSDOF 1
ENDMDL
MODEL 16
REMARK VINA RESULT:      -3.5      1.391      2.744
REMARK  1 active torsions:
REMARK  status: ('A' for Active; 'I' for Inactive)
REMARK    1  A    between atoms: C_2  and  C_5 
ROOT
HETATM    1 CL   LIG     1      18.083  38.544  22.710  1.00  0.00    -0.083 Cl
HETATM    2  C   LIG     1      16.974  37.146  22.717  1.00  0.00     0.200 C 
HETATM    3 CL   LIG     1      17.234  36.198  24.206  1.00  0.00    -0.083 Cl
HETATM    4 CL   LIG     1      15.302  37.760  22.730  1.00  0.00    -0.083 Cl
ENDROOT
BRANCH   2   5
HETATM    5  C   LIG     1      17.186  36.276  21.473  1.00  0.00     0.173 C 
HETATM    6 CL   LIG     1      18.317  37.023  20.309  1.00  0.00    -0.126 Cl
ENDBRANCH   2   5
TORSDOF 1
ENDMDL
MODEL 17
REMARK VINA RESULT:      -3.2      6.306      7.565
REMARK  1 active torsions:
REMARK  status: ('A' for Active; 'I' for Inactive)
REMARK    1  A    between atoms: C_2  and  C_5 
ROOT
HETATM    1 CL   LIG     1      15.354  32.218  18.756  1.00  0.00    -0.083 Cl
HETATM    2  C   LIG     1      14.723  32.645  17.142  1.00  0.00     0.200 C 
HETATM    3 CL   LIG     1      14.699  34.421  16.973  1.00  0.00    -0.083 Cl
HETATM    4 CL   LIG     1      15.832  31.982  15.915  1.00  0.00    -0.083 Cl
ENDROOT
BRANCH   2   5
HETATM    5  C   LIG     1      13.323  32.059  16.931  1.00  0.00     0.173 C 
HETATM    6 CL   LIG     1      13.338  30.648  15.834  1.00  0.00    -0.126 Cl
ENDBRANCH   2   5
TORSDOF 1
ENDMDL
MODEL 18
REMARK VINA RESULT:      -3.1      6.258      7.445
REMARK  1 active torsions:
REMARK  status: ('A' for Active; 'I' for Inactive)
REMARK    1  A    between atoms: C_2  and  C_5 
ROOT
HETATM    1 CL   LIG     1      15.924  32.051  15.929  1.00  0.00    -0.083 Cl
HETATM    2  C   LIG     1      14.788  32.656  17.164  1.00  0.00     0.200 C 
HETATM    3 CL   LIG     1      15.419  32.261  18.786  1.00  0.00    -0.083 Cl
HETATM    4 CL   LIG     1      14.694  34.429  17.018  1.00  0.00    -0.083 Cl
ENDROOT
BRANCH   2   5
HETATM    5  C   LIG     1      13.393  32.056  16.962  1.00  0.00     0.173 C 
HETATM    6 CL   LIG     1      13.415  30.648  15.860  1.00  0.00    -0.126 Cl
ENDBRANCH   2   5
TORSDOF 1
ENDMDL
MODEL 19
REMARK VINA RESULT:      -3.1      6.334      7.615
REMARK  1 active torsions:
REMARK  status: ('A' for Active; 'I' for Inactive)
REMARK    1  A    between atoms: C_2  and  C_5 
ROOT
HETATM    1 CL   LIG     1      15.286  32.192  18.677  1.00  0.00    -0.083 Cl
HETATM    2  C   LIG     1      14.675  32.654  17.065  1.00  0.00     0.200 C 
HETATM    3 CL   LIG     1      12.991  32.086  16.893  1.00  0.00    -0.083 Cl
HETATM    4 CL   LIG     1      14.679  34.431  16.953  1.00  0.00    -0.083 Cl
ENDROOT
BRANCH   2   5
HETATM    5  C   LIG     1      15.561  32.073  15.958  1.00  0.00     0.173 C 
HETATM    6 CL   LIG     1      14.727  30.799  15.021  1.00  0.00    -0.126 Cl
ENDBRANCH   2   5
TORSDOF 1
ENDMDL
MODEL 20
REMARK VINA RESULT:      -3.1      6.454      7.740
REMARK  1 active torsions:
REMARK  status: ('A' for Active; 'I' for Inactive)
REMARK    1  A    between atoms: C_2  and  C_5 
ROOT
HETATM    1 CL   LIG     1      12.723  32.180  16.802  1.00  0.00    -0.083 Cl
HETATM    2  C   LIG     1      14.448  32.593  16.989  1.00  0.00     0.200 C 
HETATM    3 CL   LIG     1      14.634  34.368  16.943  1.00  0.00    -0.083 Cl
HETATM    4 CL   LIG     1      14.992  32.016  18.584  1.00  0.00    -0.083 Cl
ENDROOT
BRANCH   2   5
HETATM    5  C   LIG     1      15.290  31.929  15.895  1.00  0.00     0.173 C 
HETATM    6 CL   LIG     1      14.445  30.550  15.134  1.00  0.00    -0.126 Cl
ENDBRANCH   2   5
TORSDOF 1
ENDMDL
