MODEL 1
REMARK VINA RESULT:      -5.1      0.000      0.000
REMARK  4 active torsions:
REMARK  status: ('A' for Active; 'I' for Inactive)
REMARK    1  A    between atoms: O_1  and  C_2 
REMARK    2  A    between atoms: C_2  and  C_3 
REMARK    3  A    between atoms: C_3  and  C_5 
REMARK    4  A    between atoms: C_5  and  C_6 
ROOT
HETATM    1  C   LIG     1      17.222  37.426  23.252  1.00  0.00     0.005 C 
HETATM    2  C   LIG     1      17.961  38.682  22.771  1.00  0.00     0.012 C 
ENDROOT
BRANCH   1   3
HETATM    3  C   LIG     1      15.799  37.410  22.658  1.00  0.00     0.168 C 
BRANCH   3   4
HETATM    4  O   LIG     1      14.906  38.091  23.494  1.00  0.00    -0.400 OA
HETATM    5  H   LIG     1      15.442  38.417  24.263  1.00  0.00     0.209 HD
ENDBRANCH   3   4
ENDBRANCH   1   3
BRANCH   1   6
HETATM    6  C   LIG     1      17.204  37.377  24.806  1.00  0.00     0.010 C 
BRANCH   6   7
HETATM    7  C   LIG     1      18.048  36.222  25.403  1.00  0.00    -0.022 C 
HETATM    8  C   LIG     1      17.296  34.892  25.270  1.00  0.00     0.009 C 
HETATM    9  C   LIG     1      18.387  36.478  26.881  1.00  0.00     0.009 C 
ENDBRANCH   6   7
ENDBRANCH   1   6
TORSDOF 4
ENDMDL
MODEL 2
REMARK VINA RESULT:      -4.9      2.704      4.069
REMARK  4 active torsions:
REMARK  status: ('A' for Active; 'I' for Inactive)
REMARK    1  A    between atoms: O_1  and  C_2 
REMARK    2  A    between atoms: C_2  and  C_3 
REMARK    3  A    between atoms: C_3  and  C_5 
REMARK    4  A    between atoms: C_5  and  C_6 
ROOT
HETATM    1  C   LIG     1      16.434  36.201  21.931  1.00  0.00     0.005 C 
HETATM    2  C   LIG     1      17.042  35.220  22.943  1.00  0.00     0.012 C 
ENDROOT
BRANCH   1   3
HETATM    3  C   LIG     1      15.551  35.426  20.932  1.00  0.00     0.168 C 
BRANCH   3   4
HETATM    4  O   LIG     1      14.199  35.737  21.124  1.00  0.00    -0.400 OA
HETATM    5  H   LIG     1      13.886  35.165  21.871  1.00  0.00     0.209 HD
ENDBRANCH   3   4
ENDBRANCH   1   3
BRANCH   1   6
HETATM    6  C   LIG     1      17.561  36.999  21.215  1.00  0.00     0.010 C 
BRANCH   6   7
HETATM    7  C   LIG     1      17.944  38.317  21.932  1.00  0.00    -0.022 C 
HETATM    8  C   LIG     1      16.695  38.976  22.533  1.00  0.00     0.009 C 
HETATM    9  C   LIG     1      18.635  39.300  20.972  1.00  0.00     0.009 C 
ENDBRANCH   6   7
ENDBRANCH   1   6
TORSDOF 4
ENDMDL
MODEL 3
REMARK VINA RESULT:      -4.8      2.386      3.949
REMARK  4 active torsions:
REMARK  status: ('A' for Active; 'I' for Inactive)
REMARK    1  A    between atoms: O_1  and  C_2 
REMARK    2  A    between atoms: C_2  and  C_3 
REMARK    3  A    between atoms: C_3  and  C_5 
REMARK    4  A    between atoms: C_5  and  C_6 
ROOT
HETATM    1  C   LIG     1      16.934  36.792  22.457  1.00  0.00     0.005 C 
HETATM    2  C   LIG     1      16.944  35.275  22.691  1.00  0.00     0.012 C 
ENDROOT
BRANCH   1   3
HETATM    3  C   LIG     1      15.479  37.302  22.469  1.00  0.00     0.168 C 
BRANCH   3   4
HETATM    4  O   LIG     1      15.242  38.098  23.596  1.00  0.00    -0.400 OA
HETATM    5  H   LIG     1      15.250  39.038  23.279  1.00  0.00     0.209 HD
ENDBRANCH   3   4
ENDBRANCH   1   3
BRANCH   1   6
HETATM    6  C   LIG     1      17.660  37.134  21.125  1.00  0.00     0.010 C 
BRANCH   6   7
HETATM    7  C   LIG     1      18.189  38.588  21.059  1.00  0.00    -0.022 C 
HETATM    8  C   LIG     1      19.342  38.689  20.052  1.00  0.00     0.009 C 
HETATM    9  C   LIG     1      18.663  39.078  22.438  1.00  0.00     0.009 C 
ENDBRANCH   6   7
ENDBRANCH   1   6
TORSDOF 4
ENDMDL
MODEL 4
REMARK VINA RESULT:      -4.8      1.580      3.592
REMARK  4 active torsions:
REMARK  status: ('A' for Active; 'I' for Inactive)
REMARK    1  A    between atoms: O_1  and  C_2 
REMARK    2  A    between atoms: C_2  and  C_3 
REMARK    3  A    between atoms: C_3  and  C_5 
REMARK    4  A    between atoms: C_5  and  C_6 
ROOT
HETATM    1  C   LIG     1      17.539  36.785  24.497  1.00  0.00     0.005 C 
HETATM    2  C   LIG     1      17.266  35.290  24.713  1.00  0.00     0.012 C 
ENDROOT
BRANCH   1   3
HETATM    3  C   LIG     1      17.629  37.491  25.865  1.00  0.00     0.168 C 
BRANCH   3   4
HETATM    4  O   LIG     1      17.235  38.831  25.756  1.00  0.00    -0.400 OA
HETATM    5  H   LIG     1      17.822  39.343  26.371  1.00  0.00     0.209 HD
ENDBRANCH   3   4
ENDBRANCH   1   3
BRANCH   1   6
HETATM    6  C   LIG     1      16.437  37.405  23.592  1.00  0.00     0.010 C 
BRANCH   6   7
HETATM    7  C   LIG     1      16.958  37.882  22.214  1.00  0.00    -0.022 C 
HETATM    8  C   LIG     1      17.336  36.676  21.343  1.00  0.00     0.009 C 
HETATM    9  C   LIG     1      18.174  38.812  22.363  1.00  0.00     0.009 C 
ENDBRANCH   6   7
ENDBRANCH   1   6
TORSDOF 4
ENDMDL
MODEL 5
REMARK VINA RESULT:      -4.7      3.275      4.178
REMARK  4 active torsions:
REMARK  status: ('A' for Active; 'I' for Inactive)
REMARK    1  A    between atoms: O_1  and  C_2 
REMARK    2  A    between atoms: C_2  and  C_3 
REMARK    3  A    between atoms: C_3  and  C_5 
REMARK    4  A    between atoms: C_5  and  C_6 
ROOT
HETATM    1  C   LIG     1      18.248  38.014  21.272  1.00  0.00     0.005 C 
HETATM    2  C   LIG     1      17.292  38.903  22.079  1.00  0.00     0.012 C 
ENDROOT
BRANCH   1   3
HETATM    3  C   LIG     1      18.734  38.783  20.027  1.00  0.00     0.168 C 
BRANCH   3   4
HETATM    4  O   LIG     1      19.789  39.642  20.358  1.00  0.00    -0.400 OA
HETATM    5  H   LIG     1      19.896  39.584  21.342  1.00  0.00     0.209 HD
ENDBRANCH   3   4
ENDBRANCH   1   3
BRANCH   1   6
HETATM    6  C   LIG     1      17.546  36.678  20.894  1.00  0.00     0.010 C 
BRANCH   6   7
HETATM    7  C   LIG     1      16.452  36.243  21.901  1.00  0.00    -0.022 C 
HETATM    8  C   LIG     1      17.009  35.187  22.866  1.00  0.00     0.009 C 
HETATM    9  C   LIG     1      15.215  35.682  21.180  1.00  0.00     0.009 C 
ENDBRANCH   6   7
ENDBRANCH   1   6
TORSDOF 4
ENDMDL
MODEL 6
REMARK VINA RESULT:      -4.6      1.994      2.698
REMARK  4 active torsions:
REMARK  status: ('A' for Active; 'I' for Inactive)
REMARK    1  A    between atoms: O_1  and  C_2 
REMARK    2  A    between atoms: C_2  and  C_3 
REMARK    3  A    between atoms: C_3  and  C_5 
REMARK    4  A    between atoms: C_5  and  C_6 
ROOT
HETATM    1  C   LIG     1      16.696  35.804  22.000  1.00  0.00     0.005 C 
HETATM    2  C   LIG     1      17.555  36.233  20.803  1.00  0.00     0.012 C 
ENDROOT
BRANCH   1   3
HETATM    3  C   LIG     1      15.481  34.999  21.496  1.00  0.00     0.168 C 
BRANCH   3   4
HETATM    4  O   LIG     1      14.378  35.839  21.302  1.00  0.00    -0.400 OA
HETATM    5  H   LIG     1      13.893  35.482  20.514  1.00  0.00     0.209 HD
ENDBRANCH   3   4
ENDBRANCH   1   3
BRANCH   1   6
HETATM    6  C   LIG     1      16.267  37.051  22.826  1.00  0.00     0.010 C 
BRANCH   6   7
HETATM    7  C   LIG     1      16.814  37.056  24.275  1.00  0.00    -0.022 C 
HETATM    8  C   LIG     1      17.945  38.084  24.413  1.00  0.00     0.009 C 
HETATM    9  C   LIG     1      17.327  35.666  24.688  1.00  0.00     0.009 C 
ENDBRANCH   6   7
ENDBRANCH   1   6
TORSDOF 4
ENDMDL
MODEL 7
REMARK VINA RESULT:      -4.6      2.240      3.947
REMARK  4 active torsions:
REMARK  status: ('A' for Active; 'I' for Inactive)
REMARK    1  A    between atoms: O_1  and  C_2 
REMARK    2  A    between atoms: C_2  and  C_3 
REMARK    3  A    between atoms: C_3  and  C_5 
REMARK    4  A    between atoms: C_5  and  C_6 
ROOT
HETATM    1  C   LIG     1      16.975  37.380  22.065  1.00  0.00     0.005 C 
HETATM    2  C   LIG     1      18.008  38.328  21.442  1.00  0.00     0.012 C 
ENDROOT
BRANCH   1   3
HETATM    3  C   LIG     1      17.123  37.397  23.600  1.00  0.00     0.168 C 
BRANCH   3   4
HETATM    4  O   LIG     1      15.995  37.972  24.198  1.00  0.00    -0.400 OA
HETATM    5  H   LIG     1      15.741  38.743  23.627  1.00  0.00     0.209 HD
ENDBRANCH   3   4
ENDBRANCH   1   3
BRANCH   1   6
HETATM    6  C   LIG     1      17.141  35.948  21.480  1.00  0.00     0.010 C 
BRANCH   6   7
HETATM    7  C   LIG     1      15.910  35.455  20.679  1.00  0.00    -0.022 C 
HETATM    8  C   LIG     1      14.615  35.928  21.352  1.00  0.00     0.009 C 
HETATM    9  C   LIG     1      15.897  33.922  20.555  1.00  0.00     0.009 C 
ENDBRANCH   6   7
ENDBRANCH   1   6
TORSDOF 4
ENDMDL
MODEL 8
REMARK VINA RESULT:      -4.5      1.727      2.090
REMARK  4 active torsions:
REMARK  status: ('A' for Active; 'I' for Inactive)
REMARK    1  A    between atoms: O_1  and  C_2 
REMARK    2  A    between atoms: C_2  and  C_3 
REMARK    3  A    between atoms: C_3  and  C_5 
REMARK    4  A    between atoms: C_5  and  C_6 
ROOT
HETATM    1  C   LIG     1      17.197  38.205  23.304  1.00  0.00     0.005 C 
HETATM    2  C   LIG     1      17.012  37.264  22.106  1.00  0.00     0.012 C 
ENDROOT
BRANCH   1   3
HETATM    3  C   LIG     1      18.650  38.721  23.330  1.00  0.00     0.168 C 
BRANCH   3   4
HETATM    4  O   LIG     1      18.977  39.337  22.116  1.00  0.00    -0.400 OA
HETATM    5  H   LIG     1      19.898  39.690  22.224  1.00  0.00     0.209 HD
ENDBRANCH   3   4
ENDBRANCH   1   3
BRANCH   1   6
HETATM    6  C   LIG     1      16.816  37.473  24.623  1.00  0.00     0.010 C 
BRANCH   6   7
HETATM    7  C   LIG     1      17.885  36.461  25.105  1.00  0.00    -0.022 C 
HETATM    8  C   LIG     1      17.335  35.031  25.028  1.00  0.00     0.009 C 
HETATM    9  C   LIG     1      18.336  36.763  26.544  1.00  0.00     0.009 C 
ENDBRANCH   6   7
ENDBRANCH   1   6
TORSDOF 4
ENDMDL
MODEL 9
REMARK VINA RESULT:      -4.5      8.661     10.210
REMARK  4 active torsions:
REMARK  status: ('A' for Active; 'I' for Inactive)
REMARK    1  A    between atoms: O_1  and  C_2 
REMARK    2  A    between atoms: C_2  and  C_3 
REMARK    3  A    between atoms: C_3  and  C_5 
REMARK    4  A    between atoms: C_5  and  C_6 
ROOT
HETATM    1  C   LIG     1      15.061  32.566  17.254  1.00  0.00     0.005 C 
HETATM    2  C   LIG     1      15.079  32.330  18.771  1.00  0.00     0.012 C 
ENDROOT
BRANCH   1   3
HETATM    3  C   LIG     1      14.954  34.078  16.972  1.00  0.00     0.168 C 
BRANCH   3   4
HETATM    4  O   LIG     1      16.041  34.516  16.206  1.00  0.00    -0.400 OA
HETATM    5  H   LIG     1      15.753  35.362  15.774  1.00  0.00     0.209 HD
ENDBRANCH   3   4
ENDBRANCH   1   3
BRANCH   1   6
HETATM    6  C   LIG     1      13.897  31.768  16.602  1.00  0.00     0.010 C 
BRANCH   6   7
HETATM    7  C   LIG     1      14.369  30.674  15.612  1.00  0.00    -0.022 C 
HETATM    8  C   LIG     1      15.332  31.273  14.578  1.00  0.00     0.009 C 
HETATM    9  C   LIG     1      13.180  30.018  14.890  1.00  0.00     0.009 C 
ENDBRANCH   6   7
ENDBRANCH   1   6
TORSDOF 4
ENDMDL
MODEL 10
REMARK VINA RESULT:      -4.5      8.662     10.149
REMARK  4 active torsions:
REMARK  status: ('A' for Active; 'I' for Inactive)
REMARK    1  A    between atoms: O_1  and  C_2 
REMARK    2  A    between atoms: C_2  and  C_3 
REMARK    3  A    between atoms: C_3  and  C_5 
REMARK    4  A    between atoms: C_5  and  C_6 
ROOT
HETATM    1  C   LIG     1      14.586  32.774  17.097  1.00  0.00     0.005 C 
HETATM    2  C   LIG     1      14.921  34.265  16.957  1.00  0.00     0.012 C 
ENDROOT
BRANCH   1   3
HETATM    3  C   LIG     1      15.129  32.250  18.442  1.00  0.00     0.168 C 
BRANCH   3   4
HETATM    4  O   LIG     1      14.124  31.586  19.156  1.00  0.00    -0.400 OA
HETATM    5  H   LIG     1      14.581  30.886  19.690  1.00  0.00     0.209 HD
ENDBRANCH   3   4
ENDBRANCH   1   3
BRANCH   1   6
HETATM    6  C   LIG     1      15.160  31.980  15.889  1.00  0.00     0.010 C 
BRANCH   6   7
HETATM    7  C   LIG     1      14.427  30.642  15.618  1.00  0.00    -0.022 C 
HETATM    8  C   LIG     1      14.652  30.198  14.167  1.00  0.00     0.009 C 
HETATM    9  C   LIG     1      12.919  30.760  15.894  1.00  0.00     0.009 C 
ENDBRANCH   6   7
ENDBRANCH   1   6
TORSDOF 4
ENDMDL
MODEL 11
REMARK VINA RESULT:      -4.4      3.361      4.137
REMARK  4 active torsions:
REMARK  status: ('A' for Active; 'I' for Inactive)
REMARK    1  A    between atoms: O_1  and  C_2 
REMARK    2  A    between atoms: C_2  and  C_3 
REMARK    3  A    between atoms: C_3  and  C_5 
REMARK    4  A    between atoms: C_5  and  C_6 
ROOT
HETATM    1  C   LIG     1      18.474  37.777  20.970  1.00  0.00     0.005 C 
HETATM    2  C   LIG     1      18.472  39.307  21.085  1.00  0.00     0.012 C 
ENDROOT
BRANCH   1   3
HETATM    3  C   LIG     1      18.680  37.374  19.496  1.00  0.00     0.168 C 
BRANCH   3   4
HETATM    4  O   LIG     1      19.661  36.381  19.388  1.00  0.00    -0.400 OA
HETATM    5  H   LIG     1      19.482  35.907  18.535  1.00  0.00     0.209 HD
ENDBRANCH   3   4
ENDBRANCH   1   3
BRANCH   1   6
HETATM    6  C   LIG     1      17.155  37.195  21.555  1.00  0.00     0.010 C 
BRANCH   6   7
HETATM    7  C   LIG     1      17.142  35.648  21.640  1.00  0.00    -0.022 C 
HETATM    8  C   LIG     1      16.006  35.079  20.779  1.00  0.00     0.009 C 
HETATM    9  C   LIG     1      16.980  35.166  23.092  1.00  0.00     0.009 C 
ENDBRANCH   6   7
ENDBRANCH   1   6
TORSDOF 4
ENDMDL
MODEL 12
REMARK VINA RESULT:      -4.3      3.109      5.251
REMARK  4 active torsions:
REMARK  status: ('A' for Active; 'I' for Inactive)
REMARK    1  A    between atoms: O_1  and  C_2 
REMARK    2  A    between atoms: C_2  and  C_3 
REMARK    3  A    between atoms: C_3  and  C_5 
REMARK    4  A    between atoms: C_5  and  C_6 
ROOT
HETATM    1  C   LIG     1      17.911  37.778  21.645  1.00  0.00     0.005 C 
HETATM    2  C   LIG     1      17.661  36.522  20.800  1.00  0.00     0.012 C 
ENDROOT
BRANCH   1   3
HETATM    3  C   LIG     1      16.618  38.155  22.397  1.00  0.00     0.168 C 
BRANCH   3   4
HETATM    4  O   LIG     1      16.753  39.403  23.017  1.00  0.00    -0.400 OA
HETATM    5  H   LIG     1      17.467  39.297  23.699  1.00  0.00     0.209 HD
ENDBRANCH   3   4
ENDBRANCH   1   3
BRANCH   1   6
HETATM    6  C   LIG     1      18.419  38.939  20.743  1.00  0.00     0.010 C 
BRANCH   6   7
HETATM    7  C   LIG     1      19.118  38.459  19.446  1.00  0.00    -0.022 C 
HETATM    8  C   LIG     1      20.640  38.600  19.580  1.00  0.00     0.009 C 
HETATM    9  C   LIG     1      18.632  39.249  18.219  1.00  0.00     0.009 C 
ENDBRANCH   6   7
ENDBRANCH   1   6
TORSDOF 4
ENDMDL
MODEL 13
REMARK VINA RESULT:      -4.3      6.825      8.482
REMARK  4 active torsions:
REMARK  status: ('A' for Active; 'I' for Inactive)
REMARK    1  A    between atoms: O_1  and  C_2 
REMARK    2  A    between atoms: C_2  and  C_3 
REMARK    3  A    between atoms: C_3  and  C_5 
REMARK    4  A    between atoms: C_5  and  C_6 
ROOT
HETATM    1  C   LIG     1      15.523  32.603  19.454  1.00  0.00     0.005 C 
HETATM    2  C   LIG     1      14.800  31.344  19.950  1.00  0.00     0.012 C 
ENDROOT
BRANCH   1   3
HETATM    3  C   LIG     1      15.447  33.698  20.537  1.00  0.00     0.168 C 
BRANCH   3   4
HETATM    4  O   LIG     1      14.294  33.544  21.316  1.00  0.00    -0.400 OA
HETATM    5  H   LIG     1      14.078  32.576  21.302  1.00  0.00     0.209 HD
ENDBRANCH   3   4
ENDBRANCH   1   3
BRANCH   1   6
HETATM    6  C   LIG     1      14.909  33.076  18.105  1.00  0.00     0.010 C 
BRANCH   6   7
HETATM    7  C   LIG     1      14.525  31.914  17.155  1.00  0.00    -0.022 C 
HETATM    8  C   LIG     1      15.326  32.009  15.849  1.00  0.00     0.009 C 
HETATM    9  C   LIG     1      13.020  31.922  16.838  1.00  0.00     0.009 C 
ENDBRANCH   6   7
ENDBRANCH   1   6
TORSDOF 4
ENDMDL
MODEL 14
REMARK VINA RESULT:      -4.3      2.321      3.135
REMARK  4 active torsions:
REMARK  status: ('A' for Active; 'I' for Inactive)
REMARK    1  A    between atoms: O_1  and  C_2 
REMARK    2  A    between atoms: C_2  and  C_3 
REMARK    3  A    between atoms: C_3  and  C_5 
REMARK    4  A    between atoms: C_5  and  C_6 
ROOT
HETATM    1  C   LIG     1      18.141  37.797  21.455  1.00  0.00     0.005 C 
HETATM    2  C   LIG     1      18.451  39.259  21.106  1.00  0.00     0.012 C 
ENDROOT
BRANCH   1   3
HETATM    3  C   LIG     1      18.272  36.928  20.188  1.00  0.00     0.168 C 
BRANCH   3   4
HETATM    4  O   LIG     1      17.309  35.912  20.183  1.00  0.00    -0.400 OA
HETATM    5  H   LIG     1      17.313  35.522  21.096  1.00  0.00     0.209 HD
ENDBRANCH   3   4
ENDBRANCH   1   3
BRANCH   1   6
HETATM    6  C   LIG     1      16.726  37.687  22.093  1.00  0.00     0.010 C 
BRANCH   6   7
HETATM    7  C   LIG     1      16.741  37.190  23.560  1.00  0.00    -0.022 C 
HETATM    8  C   LIG     1      17.737  38.012  24.389  1.00  0.00     0.009 C 
HETATM    9  C   LIG     1      17.106  35.699  23.645  1.00  0.00     0.009 C 
ENDBRANCH   6   7
ENDBRANCH   1   6
TORSDOF 4
ENDMDL
MODEL 15
REMARK VINA RESULT:      -4.2      2.929      4.764
REMARK  4 active torsions:
REMARK  status: ('A' for Active; 'I' for Inactive)
REMARK    1  A    between atoms: O_1  and  C_2 
REMARK    2  A    between atoms: C_2  and  C_3 
REMARK    3  A    between atoms: C_3  and  C_5 
REMARK    4  A    between atoms: C_5  and  C_6 
ROOT
HETATM    1  C   LIG     1      16.794  35.160  21.681  1.00  0.00     0.005 C 
HETATM    2  C   LIG     1      15.428  34.493  21.473  1.00  0.00     0.012 C 
ENDROOT
BRANCH   1   3
HETATM    3  C   LIG     1      16.839  35.811  23.078  1.00  0.00     0.168 C 
BRANCH   3   4
HETATM    4  O   LIG     1      17.194  34.869  24.051  1.00  0.00    -0.400 OA
HETATM    5  H   LIG     1      18.182  34.908  24.128  1.00  0.00     0.209 HD
ENDBRANCH   3   4
ENDBRANCH   1   3
BRANCH   1   6
HETATM    6  C   LIG     1      17.064  36.192  20.548  1.00  0.00     0.010 C 
BRANCH   6   7
HETATM    7  C   LIG     1      18.373  36.998  20.739  1.00  0.00    -0.022 C 
HETATM    8  C   LIG     1      18.053  38.448  21.126  1.00  0.00     0.009 C 
HETATM    9  C   LIG     1      19.234  36.982  19.465  1.00  0.00     0.009 C 
ENDBRANCH   6   7
ENDBRANCH   1   6
TORSDOF 4
ENDMDL
MODEL 16
REMARK VINA RESULT:      -4.1      3.522      5.148
REMARK  4 active torsions:
REMARK  status: ('A' for Active; 'I' for Inactive)
REMARK    1  A    between atoms: O_1  and  C_2 
REMARK    2  A    between atoms: C_2  and  C_3 
REMARK    3  A    between atoms: C_3  and  C_5 
REMARK    4  A    between atoms: C_5  and  C_6 
ROOT
HETATM    1  C   LIG     1      17.596  38.317  21.379  1.00  0.00     0.005 C 
HETATM    2  C   LIG     1      16.726  38.879  22.511  1.00  0.00     0.012 C 
ENDROOT
BRANCH   1   3
HETATM    3  C   LIG     1      17.631  36.778  21.475  1.00  0.00     0.168 C 
BRANCH   3   4
HETATM    4  O   LIG     1      17.715  36.206  20.200  1.00  0.00    -0.400 OA
HETATM    5  H   LIG     1      17.967  35.256  20.339  1.00  0.00     0.209 HD
ENDBRANCH   3   4
ENDBRANCH   1   3
BRANCH   1   6
HETATM    6  C   LIG     1      19.021  38.937  21.441  1.00  0.00     0.010 C 
BRANCH   6   7
HETATM    7  C   LIG     1      19.631  39.237  20.049  1.00  0.00    -0.022 C 
HETATM    8  C   LIG     1      18.521  39.354  18.997  1.00  0.00     0.009 C 
HETATM    9  C   LIG     1      20.631  38.148  19.626  1.00  0.00     0.009 C 
ENDBRANCH   6   7
ENDBRANCH   1   6
TORSDOF 4
ENDMDL
MODEL 17
REMARK VINA RESULT:      -4.1      9.400     10.633
REMARK  4 active torsions:
REMARK  status: ('A' for Active; 'I' for Inactive)
REMARK    1  A    between atoms: O_1  and  C_2 
REMARK    2  A    between atoms: C_2  and  C_3 
REMARK    3  A    between atoms: C_3  and  C_5 
REMARK    4  A    between atoms: C_5  and  C_6 
ROOT
HETATM    1  C   LIG     1      14.351  30.664  15.631  1.00  0.00     0.005 C 
HETATM    2  C   LIG     1      15.330  31.210  14.583  1.00  0.00     0.012 C 
ENDROOT
BRANCH   1   3
HETATM    3  C   LIG     1      13.151  30.009  14.918  1.00  0.00     0.168 C 
BRANCH   3   4
HETATM    4  O   LIG     1      13.587  29.178  13.879  1.00  0.00    -0.400 OA
HETATM    5  H   LIG     1      14.572  29.288  13.831  1.00  0.00     0.209 HD
ENDBRANCH   3   4
ENDBRANCH   1   3
BRANCH   1   6
HETATM    6  C   LIG     1      13.906  31.803  16.593  1.00  0.00     0.010 C 
BRANCH   6   7
HETATM    7  C   LIG     1      15.087  32.564  17.246  1.00  0.00    -0.022 C 
HETATM    8  C   LIG     1      15.105  32.318  18.761  1.00  0.00     0.009 C 
HETATM    9  C   LIG     1      15.005  34.074  16.969  1.00  0.00     0.009 C 
ENDBRANCH   6   7
ENDBRANCH   1   6
TORSDOF 4
ENDMDL
MODEL 18
REMARK VINA RESULT:      -4.0     12.078     13.304
REMARK  4 active torsions:
REMARK  status: ('A' for Active; 'I' for Inactive)
REMARK    1  A    between atoms: O_1  and  C_2 
REMARK    2  A    between atoms: C_2  and  C_3 
REMARK    3  A    between atoms: C_3  and  C_5 
REMARK    4  A    between atoms: C_5  and  C_6 
ROOT
HETATM    1  C   LIG     1      14.458  28.141  14.020  1.00  0.00     0.005 C 
HETATM    2  C   LIG     1      15.524  27.468  13.145  1.00  0.00     0.012 C 
ENDROOT
BRANCH   1   3
HETATM    3  C   LIG     1      13.073  27.550  13.685  1.00  0.00     0.168 C 
BRANCH   3   4
HETATM    4  O   LIG     1      12.110  28.564  13.606  1.00  0.00    -0.400 OA
HETATM    5  H   LIG     1      12.077  28.986  14.503  1.00  0.00     0.209 HD
ENDBRANCH   3   4
ENDBRANCH   1   3
BRANCH   1   6
HETATM    6  C   LIG     1      14.497  29.683  13.821  1.00  0.00     0.010 C 
BRANCH   6   7
HETATM    7  C   LIG     1      14.857  30.468  15.107  1.00  0.00    -0.022 C 
HETATM    8  C   LIG     1      13.588  30.787  15.908  1.00  0.00     0.009 C 
HETATM    9  C   LIG     1      15.603  31.772  14.780  1.00  0.00     0.009 C 
ENDBRANCH   6   7
ENDBRANCH   1   6
TORSDOF 4
ENDMDL
MODEL 19
REMARK VINA RESULT:      -4.0      3.708      4.511
REMARK  4 active torsions:
REMARK  status: ('A' for Active; 'I' for Inactive)
REMARK    1  A    between atoms: O_1  and  C_2 
REMARK    2  A    between atoms: C_2  and  C_3 
REMARK    3  A    between atoms: C_3  and  C_5 
REMARK    4  A    between atoms: C_5  and  C_6 
ROOT
HETATM    1  C   LIG     1      17.762  37.060  20.555  1.00  0.00     0.005 C 
HETATM    2  C   LIG     1      18.999  36.849  19.672  1.00  0.00     0.012 C 
ENDROOT
BRANCH   1   3
HETATM    3  C   LIG     1      17.989  38.281  21.471  1.00  0.00     0.168 C 
BRANCH   3   4
HETATM    4  O   LIG     1      18.730  39.265  20.807  1.00  0.00    -0.400 OA
HETATM    5  H   LIG     1      18.756  40.049  21.414  1.00  0.00     0.209 HD
ENDBRANCH   3   4
ENDBRANCH   1   3
BRANCH   1   6
HETATM    6  C   LIG     1      17.459  35.770  21.369  1.00  0.00     0.010 C 
BRANCH   6   7
HETATM    7  C   LIG     1      16.039  35.200  21.128  1.00  0.00    -0.022 C 
HETATM    8  C   LIG     1      15.813  34.957  19.630  1.00  0.00     0.009 C 
HETATM    9  C   LIG     1      14.954  36.147  21.667  1.00  0.00     0.009 C 
ENDBRANCH   6   7
ENDBRANCH   1   6
TORSDOF 4
ENDMDL
MODEL 20
REMARK VINA RESULT:      -4.0      2.628      3.519
REMARK  4 active torsions:
REMARK  status: ('A' for Active; 'I' for Inactive)
REMARK    1  A    between atoms: O_1  and  C_2 
REMARK    2  A    between atoms: C_2  and  C_3 
REMARK    3  A    between atoms: C_3  and  C_5 
REMARK    4  A    between atoms: C_5  and  C_6 
ROOT
HETATM    1  C   LIG     1      17.896  37.904  21.254  1.00  0.00     0.005 C 
HETATM    2  C   LIG     1      18.492  37.238  20.006  1.00  0.00     0.012 C 
ENDROOT
BRANCH   1   3
HETATM    3  C   LIG     1      18.770  39.109  21.658  1.00  0.00     0.168 C 
BRANCH   3   4
HETATM    4  O   LIG     1      19.168  39.832  20.527  1.00  0.00    -0.400 OA
HETATM    5  H   LIG     1      19.642  40.636  20.865  1.00  0.00     0.209 HD
ENDBRANCH   3   4
ENDBRANCH   1   3
BRANCH   1   6
HETATM    6  C   LIG     1      17.766  36.866  22.405  1.00  0.00     0.010 C 
BRANCH   6   7
HETATM    7  C   LIG     1      16.588  37.150  23.370  1.00  0.00    -0.022 C 
HETATM    8  C   LIG     1      15.529  38.015  22.674  1.00  0.00     0.009 C 
HETATM    9  C   LIG     1      17.068  37.853  24.651  1.00  0.00     0.009 C 
ENDBRANCH   6   7
ENDBRANCH   1   6
TORSDOF 4
ENDMDL
