REMARK  4 active torsions:
REMARK  status: ('A' for Active; 'I' for Inactive)
REMARK    1  A    between atoms: O_1  and  C_2 
REMARK    2  A    between atoms: C_2  and  C_3 
REMARK    3  A    between atoms: C_3  and  C_5 
REMARK    4  A    between atoms: C_5  and  C_6 
ROOT
HETATM    1  C   LIG     1       1.117  -0.540  -0.184  1.00  0.00     0.005 C 
HETATM    2  C   LIG     1       1.846  -1.716   0.480  1.00  0.00     0.012 C 
ENDROOT
BRANCH   1   3
HETATM    3  C   LIG     1       2.108   0.622  -0.398  1.00  0.00     0.168 C 
BRANCH   3   4
HETATM    4  O   LIG     1       1.508   1.655  -1.128  1.00  0.00    -0.400 OA
HETATM    5  H   LIG     1       2.191   2.370  -1.209  1.00  0.00     0.209 HD
ENDBRANCH   3   4
ENDBRANCH   1   3
BRANCH   1   6
HETATM    6  C   LIG     1      -0.105  -0.112   0.678  1.00  0.00     0.010 C 
BRANCH   6   7
HETATM    7  C   LIG     1      -1.287   0.448  -0.152  1.00  0.00    -0.022 C 
HETATM    8  C   LIG     1      -2.223   1.270   0.744  1.00  0.00     0.009 C 
HETATM    9  C   LIG     1      -2.082  -0.680  -0.831  1.00  0.00     0.009 C 
ENDBRANCH   6   7
ENDBRANCH   1   6
TORSDOF 4
