MODEL 1
REMARK VINA RESULT:      -4.4      0.000      0.000
REMARK  0 active torsions:
REMARK  status: ('A' for Active; 'I' for Inactive)
REMARK       I    between atoms: C_2  and  N_3 
REMARK       I    between atoms: C_2  and  N_6 
ROOT
HETATM    1  O   LIG     1      16.777  38.456  25.113  1.00  0.00    -0.247 OA
HETATM    2  C   LIG     1      16.967  37.310  24.619  1.00  0.00     0.319 C 
HETATM    3  N   LIG     1      17.599  36.294  25.418  1.00  0.00    -0.343 N 
HETATM    4  C   LIG     1      17.222  34.885  25.288  1.00  0.00     0.154 C 
HETATM    5  C   LIG     1      18.626  36.677  26.387  1.00  0.00     0.154 C 
HETATM    6  N   LIG     1      16.550  37.048  23.266  1.00  0.00    -0.343 N 
HETATM    7  C   LIG     1      15.349  37.704  22.746  1.00  0.00     0.154 C 
HETATM    8  C   LIG     1      17.313  36.149  22.398  1.00  0.00     0.154 C 
ENDROOT
TORSDOF 0
ENDMDL
MODEL 2
REMARK VINA RESULT:      -4.4      0.027      3.214
REMARK  0 active torsions:
REMARK  status: ('A' for Active; 'I' for Inactive)
REMARK       I    between atoms: C_2  and  N_3 
REMARK       I    between atoms: C_2  and  N_6 
ROOT
HETATM    1  O   LIG     1      16.769  38.456  25.113  1.00  0.00    -0.247 OA
HETATM    2  C   LIG     1      16.969  37.318  24.605  1.00  0.00     0.319 C 
HETATM    3  N   LIG     1      16.551  37.067  23.251  1.00  0.00    -0.343 N 
HETATM    4  C   LIG     1      17.318  36.182  22.372  1.00  0.00     0.154 C 
HETATM    5  C   LIG     1      15.345  37.719  22.740  1.00  0.00     0.154 C 
HETATM    6  N   LIG     1      17.608  36.296  25.394  1.00  0.00    -0.343 N 
HETATM    7  C   LIG     1      18.634  36.677  26.365  1.00  0.00     0.154 C 
HETATM    8  C   LIG     1      17.240  34.887  25.249  1.00  0.00     0.154 C 
ENDROOT
TORSDOF 0
ENDMDL
MODEL 3
REMARK VINA RESULT:      -4.0      3.235      4.154
REMARK  0 active torsions:
REMARK  status: ('A' for Active; 'I' for Inactive)
REMARK       I    between atoms: C_2  and  N_3 
REMARK       I    between atoms: C_2  and  N_6 
ROOT
HETATM    1  O   LIG     1      17.847  36.317  19.765  1.00  0.00    -0.247 OA
HETATM    2  C   LIG     1      17.434  36.495  20.944  1.00  0.00     0.319 C 
HETATM    3  N   LIG     1      17.565  37.794  21.549  1.00  0.00    -0.343 N 
HETATM    4  C   LIG     1      16.556  38.300  22.482  1.00  0.00     0.154 C 
HETATM    5  C   LIG     1      18.719  38.629  21.215  1.00  0.00     0.154 C 
HETATM    6  N   LIG     1      16.845  35.392  21.658  1.00  0.00    -0.343 N 
HETATM    7  C   LIG     1      16.064  34.397  20.922  1.00  0.00     0.154 C 
HETATM    8  C   LIG     1      17.023  35.241  23.103  1.00  0.00     0.154 C 
ENDROOT
TORSDOF 0
ENDMDL
MODEL 4
REMARK VINA RESULT:      -4.0      3.231      4.104
REMARK  0 active torsions:
REMARK  status: ('A' for Active; 'I' for Inactive)
REMARK       I    between atoms: C_2  and  N_3 
REMARK       I    between atoms: C_2  and  N_6 
ROOT
HETATM    1  O   LIG     1      17.848  36.325  19.771  1.00  0.00    -0.247 OA
HETATM    2  C   LIG     1      17.434  36.498  20.951  1.00  0.00     0.319 C 
HETATM    3  N   LIG     1      16.846  35.392  21.660  1.00  0.00    -0.343 N 
HETATM    4  C   LIG     1      17.021  35.239  23.106  1.00  0.00     0.154 C 
HETATM    5  C   LIG     1      16.069  34.397  20.921  1.00  0.00     0.154 C 
HETATM    6  N   LIG     1      17.559  37.797  21.559  1.00  0.00    -0.343 N 
HETATM    7  C   LIG     1      18.712  38.636  21.228  1.00  0.00     0.154 C 
HETATM    8  C   LIG     1      16.547  38.298  22.490  1.00  0.00     0.154 C 
ENDROOT
TORSDOF 0
ENDMDL
MODEL 5
REMARK VINA RESULT:      -3.9      2.240      3.106
REMARK  0 active torsions:
REMARK  status: ('A' for Active; 'I' for Inactive)
REMARK       I    between atoms: C_2  and  N_3 
REMARK       I    between atoms: C_2  and  N_6 
ROOT
HETATM    1  O   LIG     1      18.880  39.085  22.959  1.00  0.00    -0.247 OA
HETATM    2  C   LIG     1      17.991  38.322  22.489  1.00  0.00     0.319 C 
HETATM    3  N   LIG     1      16.878  37.942  23.318  1.00  0.00    -0.343 N 
HETATM    4  C   LIG     1      15.543  37.740  22.751  1.00  0.00     0.154 C 
HETATM    5  C   LIG     1      17.081  37.766  24.756  1.00  0.00     0.154 C 
HETATM    6  N   LIG     1      18.112  37.848  21.134  1.00  0.00    -0.343 N 
HETATM    7  C   LIG     1      18.715  38.718  20.123  1.00  0.00     0.154 C 
HETATM    8  C   LIG     1      17.657  36.510  20.756  1.00  0.00     0.154 C 
ENDROOT
TORSDOF 0
ENDMDL
MODEL 6
REMARK VINA RESULT:      -3.9      2.282      3.884
REMARK  0 active torsions:
REMARK  status: ('A' for Active; 'I' for Inactive)
REMARK       I    between atoms: C_2  and  N_3 
REMARK       I    between atoms: C_2  and  N_6 
ROOT
HETATM    1  O   LIG     1      18.924  39.118  22.791  1.00  0.00    -0.247 OA
HETATM    2  C   LIG     1      18.027  38.329  22.385  1.00  0.00     0.319 C 
HETATM    3  N   LIG     1      18.119  37.781  21.057  1.00  0.00    -0.343 N 
HETATM    4  C   LIG     1      17.656  36.423  20.764  1.00  0.00     0.154 C 
HETATM    5  C   LIG     1      18.699  38.590  19.985  1.00  0.00     0.154 C 
HETATM    6  N   LIG     1      16.931  37.997  23.258  1.00  0.00    -0.343 N 
HETATM    7  C   LIG     1      17.167  37.903  24.699  1.00  0.00     0.154 C 
HETATM    8  C   LIG     1      15.585  37.766  22.731  1.00  0.00     0.154 C 
ENDROOT
TORSDOF 0
ENDMDL
MODEL 7
REMARK VINA RESULT:      -3.8      3.025      4.536
REMARK  0 active torsions:
REMARK  status: ('A' for Active; 'I' for Inactive)
REMARK       I    between atoms: C_2  and  N_3 
REMARK       I    between atoms: C_2  and  N_6 
ROOT
HETATM    1  O   LIG     1      16.910  36.141  20.822  1.00  0.00    -0.247 OA
HETATM    2  C   LIG     1      17.491  37.192  21.213  1.00  0.00     0.319 C 
HETATM    3  N   LIG     1      18.524  37.772  20.395  1.00  0.00    -0.343 N 
HETATM    4  C   LIG     1      18.712  39.222  20.328  1.00  0.00     0.154 C 
HETATM    5  C   LIG     1      19.392  36.897  19.607  1.00  0.00     0.154 C 
HETATM    6  N   LIG     1      17.108  37.784  22.468  1.00  0.00    -0.343 N 
HETATM    7  C   LIG     1      15.712  37.707  22.901  1.00  0.00     0.154 C 
HETATM    8  C   LIG     1      18.092  38.449  23.324  1.00  0.00     0.154 C 
ENDROOT
TORSDOF 0
ENDMDL
MODEL 8
REMARK VINA RESULT:      -3.7      2.884      3.858
REMARK  0 active torsions:
REMARK  status: ('A' for Active; 'I' for Inactive)
REMARK       I    between atoms: C_2  and  N_3 
REMARK       I    between atoms: C_2  and  N_6 
ROOT
HETATM    1  O   LIG     1      17.698  38.033  22.655  1.00  0.00    -0.247 OA
HETATM    2  C   LIG     1      17.741  37.334  21.605  1.00  0.00     0.319 C 
HETATM    3  N   LIG     1      17.029  36.083  21.561  1.00  0.00    -0.343 N 
HETATM    4  C   LIG     1      16.410  35.606  20.323  1.00  0.00     0.154 C 
HETATM    5  C   LIG     1      16.912  35.281  22.779  1.00  0.00     0.154 C 
HETATM    6  N   LIG     1      18.503  37.802  20.477  1.00  0.00    -0.343 N 
HETATM    7  C   LIG     1      18.580  39.239  20.211  1.00  0.00     0.154 C 
HETATM    8  C   LIG     1      19.212  36.869  19.600  1.00  0.00     0.154 C 
ENDROOT
TORSDOF 0
ENDMDL
MODEL 9
REMARK VINA RESULT:      -3.7      1.756      3.670
REMARK  0 active torsions:
REMARK  status: ('A' for Active; 'I' for Inactive)
REMARK       I    between atoms: C_2  and  N_3 
REMARK       I    between atoms: C_2  and  N_6 
ROOT
HETATM    1  O   LIG     1      17.193  34.777  23.197  1.00  0.00    -0.247 OA
HETATM    2  C   LIG     1      17.211  35.885  23.801  1.00  0.00     0.319 C 
HETATM    3  N   LIG     1      16.860  37.084  23.087  1.00  0.00    -0.343 N 
HETATM    4  C   LIG     1      16.157  38.184  23.750  1.00  0.00     0.154 C 
HETATM    5  C   LIG     1      17.200  37.200  21.669  1.00  0.00     0.154 C 
HETATM    6  N   LIG     1      17.586  35.924  25.192  1.00  0.00    -0.343 N 
HETATM    7  C   LIG     1      17.228  34.803  26.062  1.00  0.00     0.154 C 
HETATM    8  C   LIG     1      18.328  37.057  25.745  1.00  0.00     0.154 C 
ENDROOT
TORSDOF 0
ENDMDL
MODEL 10
REMARK VINA RESULT:      -3.7      2.885      4.285
REMARK  0 active torsions:
REMARK  status: ('A' for Active; 'I' for Inactive)
REMARK       I    between atoms: C_2  and  N_3 
REMARK       I    between atoms: C_2  and  N_6 
ROOT
HETATM    1  O   LIG     1      17.695  38.027  22.658  1.00  0.00    -0.247 OA
HETATM    2  C   LIG     1      17.739  37.329  21.607  1.00  0.00     0.319 C 
HETATM    3  N   LIG     1      18.498  37.799  20.479  1.00  0.00    -0.343 N 
HETATM    4  C   LIG     1      19.206  36.867  19.599  1.00  0.00     0.154 C 
HETATM    5  C   LIG     1      18.575  39.236  20.215  1.00  0.00     0.154 C 
HETATM    6  N   LIG     1      17.027  36.078  21.562  1.00  0.00    -0.343 N 
HETATM    7  C   LIG     1      16.912  35.274  22.780  1.00  0.00     0.154 C 
HETATM    8  C   LIG     1      16.406  35.603  20.324  1.00  0.00     0.154 C 
ENDROOT
TORSDOF 0
ENDMDL
MODEL 11
REMARK VINA RESULT:      -3.7      1.755      2.354
REMARK  0 active torsions:
REMARK  status: ('A' for Active; 'I' for Inactive)
REMARK       I    between atoms: C_2  and  N_3 
REMARK       I    between atoms: C_2  and  N_6 
ROOT
HETATM    1  O   LIG     1      17.196  34.781  23.195  1.00  0.00    -0.247 OA
HETATM    2  C   LIG     1      17.215  35.887  23.801  1.00  0.00     0.319 C 
HETATM    3  N   LIG     1      17.583  35.924  25.192  1.00  0.00    -0.343 N 
HETATM    4  C   LIG     1      18.324  37.057  25.750  1.00  0.00     0.154 C 
HETATM    5  C   LIG     1      17.223  34.802  26.059  1.00  0.00     0.154 C 
HETATM    6  N   LIG     1      16.864  37.088  23.087  1.00  0.00    -0.343 N 
HETATM    7  C   LIG     1      17.209  37.205  21.670  1.00  0.00     0.154 C 
HETATM    8  C   LIG     1      16.159  38.186  23.750  1.00  0.00     0.154 C 
ENDROOT
TORSDOF 0
ENDMDL
MODEL 12
REMARK VINA RESULT:      -3.7      9.116     10.318
REMARK  0 active torsions:
REMARK  status: ('A' for Active; 'I' for Inactive)
REMARK       I    between atoms: C_2  and  N_3 
REMARK       I    between atoms: C_2  and  N_6 
ROOT
HETATM    1  O   LIG     1      16.273  32.995  16.198  1.00  0.00    -0.247 OA
HETATM    2  C   LIG     1      15.383  32.135  15.953  1.00  0.00     0.319 C 
HETATM    3  N   LIG     1      14.338  31.908  16.916  1.00  0.00    -0.343 N 
HETATM    4  C   LIG     1      12.978  31.567  16.492  1.00  0.00     0.154 C 
HETATM    5  C   LIG     1      14.636  32.033  18.343  1.00  0.00     0.154 C 
HETATM    6  N   LIG     1      15.436  31.398  14.717  1.00  0.00    -0.343 N 
HETATM    7  C   LIG     1      15.944  32.055  13.512  1.00  0.00     0.154 C 
HETATM    8  C   LIG     1      15.004  30.001  14.648  1.00  0.00     0.154 C 
ENDROOT
TORSDOF 0
ENDMDL
MODEL 13
REMARK VINA RESULT:      -3.6      9.158     10.595
REMARK  0 active torsions:
REMARK  status: ('A' for Active; 'I' for Inactive)
REMARK       I    between atoms: C_2  and  N_3 
REMARK       I    between atoms: C_2  and  N_6 
ROOT
HETATM    1  O   LIG     1      16.214  32.992  16.268  1.00  0.00    -0.247 OA
HETATM    2  C   LIG     1      15.379  32.100  15.951  1.00  0.00     0.319 C 
HETATM    3  N   LIG     1      15.523  31.416  14.693  1.00  0.00    -0.343 N 
HETATM    4  C   LIG     1      15.160  30.005  14.551  1.00  0.00     0.154 C 
HETATM    5  C   LIG     1      16.053  32.141  13.538  1.00  0.00     0.154 C 
HETATM    6  N   LIG     1      14.301  31.789  16.854  1.00  0.00    -0.343 N 
HETATM    7  C   LIG     1      14.529  31.872  18.297  1.00  0.00     0.154 C 
HETATM    8  C   LIG     1      12.980  31.405  16.354  1.00  0.00     0.154 C 
ENDROOT
TORSDOF 0
ENDMDL
MODEL 14
REMARK VINA RESULT:      -3.6      2.174      3.180
REMARK  0 active torsions:
REMARK  status: ('A' for Active; 'I' for Inactive)
REMARK       I    between atoms: C_2  and  N_3 
REMARK       I    between atoms: C_2  and  N_6 
ROOT
HETATM    1  O   LIG     1      17.249  34.863  23.607  1.00  0.00    -0.247 OA
HETATM    2  C   LIG     1      16.713  35.781  22.926  1.00  0.00     0.319 C 
HETATM    3  N   LIG     1      16.920  37.154  23.307  1.00  0.00    -0.343 N 
HETATM    4  C   LIG     1      17.015  38.213  22.301  1.00  0.00     0.154 C 
HETATM    5  C   LIG     1      17.052  37.493  24.724  1.00  0.00     0.154 C 
HETATM    6  N   LIG     1      15.905  35.433  21.786  1.00  0.00    -0.343 N 
HETATM    7  C   LIG     1      16.261  34.261  20.986  1.00  0.00     0.154 C 
HETATM    8  C   LIG     1      14.728  36.223  21.422  1.00  0.00     0.154 C 
ENDROOT
TORSDOF 0
ENDMDL
MODEL 15
REMARK VINA RESULT:      -3.5      2.055      3.621
REMARK  0 active torsions:
REMARK  status: ('A' for Active; 'I' for Inactive)
REMARK       I    between atoms: C_2  and  N_3 
REMARK       I    between atoms: C_2  and  N_6 
ROOT
HETATM    1  O   LIG     1      17.316  34.947  23.846  1.00  0.00    -0.247 OA
HETATM    2  C   LIG     1      16.817  35.895  23.179  1.00  0.00     0.319 C 
HETATM    3  N   LIG     1      16.025  35.599  22.014  1.00  0.00    -0.343 N 
HETATM    4  C   LIG     1      14.877  36.429  21.646  1.00  0.00     0.154 C 
HETATM    5  C   LIG     1      16.367  34.438  21.192  1.00  0.00     0.154 C 
HETATM    6  N   LIG     1      17.053  37.253  23.599  1.00  0.00    -0.343 N 
HETATM    7  C   LIG     1      17.163  37.552  25.027  1.00  0.00     0.154 C 
HETATM    8  C   LIG     1      17.197  38.334  22.623  1.00  0.00     0.154 C 
ENDROOT
TORSDOF 0
ENDMDL
MODEL 16
REMARK VINA RESULT:      -3.3      5.394      6.438
REMARK  0 active torsions:
REMARK  status: ('A' for Active; 'I' for Inactive)
REMARK       I    between atoms: C_2  and  N_3 
REMARK       I    between atoms: C_2  and  N_6 
ROOT
HETATM    1  O   LIG     1      15.734  34.757  17.928  1.00  0.00    -0.247 OA
HETATM    2  C   LIG     1      15.535  34.063  18.963  1.00  0.00     0.319 C 
HETATM    3  N   LIG     1      15.691  34.669  20.259  1.00  0.00    -0.343 N 
HETATM    4  C   LIG     1      14.841  34.278  21.386  1.00  0.00     0.154 C 
HETATM    5  C   LIG     1      16.708  35.704  20.450  1.00  0.00     0.154 C 
HETATM    6  N   LIG     1      15.159  32.680  18.823  1.00  0.00    -0.343 N 
HETATM    7  C   LIG     1      14.321  32.276  17.693  1.00  0.00     0.154 C 
HETATM    8  C   LIG     1      15.610  31.671  19.783  1.00  0.00     0.154 C 
ENDROOT
TORSDOF 0
ENDMDL
MODEL 17
REMARK VINA RESULT:      -3.2      9.877     11.317
REMARK  0 active torsions:
REMARK  status: ('A' for Active; 'I' for Inactive)
REMARK       I    between atoms: C_2  and  N_3 
REMARK       I    between atoms: C_2  and  N_6 
ROOT
HETATM    1  O   LIG     1      13.880  30.638  16.175  1.00  0.00    -0.247 OA
HETATM    2  C   LIG     1      14.798  31.121  15.456  1.00  0.00     0.319 C 
HETATM    3  N   LIG     1      15.119  30.488  14.204  1.00  0.00    -0.343 N 
HETATM    4  C   LIG     1      15.549  31.274  13.045  1.00  0.00     0.154 C 
HETATM    5  C   LIG     1      15.001  29.035  14.083  1.00  0.00     0.154 C 
HETATM    6  N   LIG     1      15.505  32.292  15.906  1.00  0.00    -0.343 N 
HETATM    7  C   LIG     1      14.789  33.308  16.679  1.00  0.00     0.154 C 
HETATM    8  C   LIG     1      16.928  32.477  15.617  1.00  0.00     0.154 C 
ENDROOT
TORSDOF 0
ENDMDL
MODEL 18
REMARK VINA RESULT:      -2.7     10.508     12.096
REMARK  0 active torsions:
REMARK  status: ('A' for Active; 'I' for Inactive)
REMARK       I    between atoms: C_2  and  N_3 
REMARK       I    between atoms: C_2  and  N_6 
ROOT
HETATM    1  O   LIG     1      17.563  35.212  13.949  1.00  0.00    -0.247 OA
HETATM    2  C   LIG     1      17.604  34.099  13.356  1.00  0.00     0.319 C 
HETATM    3  N   LIG     1      18.289  33.996  12.094  1.00  0.00    -0.343 N 
HETATM    4  C   LIG     1      19.011  32.778  11.720  1.00  0.00     0.154 C 
HETATM    5  C   LIG     1      18.275  35.135  11.176  1.00  0.00     0.154 C 
HETATM    6  N   LIG     1      16.960  32.957  13.954  1.00  0.00    -0.343 N 
HETATM    7  C   LIG     1      16.939  32.829  15.412  1.00  0.00     0.154 C 
HETATM    8  C   LIG     1      16.317  31.932  13.131  1.00  0.00     0.154 C 
ENDROOT
TORSDOF 0
ENDMDL
MODEL 19
REMARK VINA RESULT:      -2.7      9.191      9.786
REMARK  0 active torsions:
REMARK  status: ('A' for Active; 'I' for Inactive)
REMARK       I    between atoms: C_2  and  N_3 
REMARK       I    between atoms: C_2  and  N_6 
ROOT
HETATM    1  O   LIG     1      15.259  34.482  16.593  1.00  0.00    -0.247 OA
HETATM    2  C   LIG     1      15.636  33.398  16.068  1.00  0.00     0.319 C 
HETATM    3  N   LIG     1      16.865  33.366  15.320  1.00  0.00    -0.343 N 
HETATM    4  C   LIG     1      17.725  32.181  15.324  1.00  0.00     0.154 C 
HETATM    5  C   LIG     1      17.269  34.545  14.553  1.00  0.00     0.154 C 
HETATM    6  N   LIG     1      14.825  32.218  16.227  1.00  0.00    -0.343 N 
HETATM    7  C   LIG     1      14.081  32.023  17.472  1.00  0.00     0.154 C 
HETATM    8  C   LIG     1      14.724  31.219  15.162  1.00  0.00     0.154 C 
ENDROOT
TORSDOF 0
ENDMDL
MODEL 20
REMARK VINA RESULT:      -2.4     15.976     16.653
REMARK  0 active torsions:
REMARK  status: ('A' for Active; 'I' for Inactive)
REMARK       I    between atoms: C_2  and  N_3 
REMARK       I    between atoms: C_2  and  N_6 
ROOT
HETATM    1  O   LIG     1      26.588  28.922  37.065  1.00  0.00    -0.247 OA
HETATM    2  C   LIG     1      26.757  29.113  35.829  1.00  0.00     0.319 C 
HETATM    3  N   LIG     1      26.987  27.985  34.965  1.00  0.00    -0.343 N 
HETATM    4  C   LIG     1      26.478  27.965  33.592  1.00  0.00     0.154 C 
HETATM    5  C   LIG     1      27.732  26.833  35.473  1.00  0.00     0.154 C 
HETATM    6  N   LIG     1      26.717  30.457  35.312  1.00  0.00    -0.343 N 
HETATM    7  C   LIG     1      25.817  31.435  35.926  1.00  0.00     0.154 C 
HETATM    8  C   LIG     1      27.570  30.865  34.194  1.00  0.00     0.154 C 
ENDROOT
TORSDOF 0
ENDMDL
