REMARK  0 active torsions:
REMARK  status: ('A' for Active; 'I' for Inactive)
REMARK       I    between atoms: C_2  and  N_3 
REMARK       I    between atoms: C_2  and  N_6 
ROOT
HETATM    1  O   LIG     1      -0.212  -1.524  -1.526  1.00  0.00    -0.247 OA
HETATM    2  C   LIG     1      -0.088  -0.636  -0.638  1.00  0.00     0.319 C 
HETATM    3  N   LIG     1       1.210  -0.383  -0.070  1.00  0.00    -0.343 N 
HETATM    4  C   LIG     1       1.611   0.966   0.334  1.00  0.00     0.154 C 
HETATM    5  C   LIG     1       2.150  -1.492   0.094  1.00  0.00     0.154 C 
HETATM    6  N   LIG     1      -1.249   0.102  -0.212  1.00  0.00    -0.343 N 
HETATM    7  C   LIG     1      -2.301   0.406  -1.183  1.00  0.00     0.154 C 
HETATM    8  C   LIG     1      -1.401   0.541   1.176  1.00  0.00     0.154 C 
ENDROOT
TORSDOF 0
