MODEL 1
REMARK VINA RESULT:      -6.1      0.000      0.000
REMARK  0 active torsions:
REMARK  status: ('A' for Active; 'I' for Inactive)
ROOT
HETATM    1 CL   LIG     1      16.339  38.824  22.490  1.00  0.00    -0.081 Cl
HETATM    2  C   LIG     1      16.769  37.322  23.309  1.00  0.00     0.079 A 
HETATM    3  C   LIG     1      16.678  36.096  22.625  1.00  0.00     0.057 A 
HETATM    4 CL   LIG     1      16.137  36.020  20.952  1.00  0.00    -0.082 Cl
HETATM    5  C   LIG     1      17.019  34.906  23.274  1.00  0.00     0.027 A 
HETATM    6  C   LIG     1      17.452  34.928  24.600  1.00  0.00     0.027 A 
HETATM    7  C   LIG     1      17.547  36.139  25.291  1.00  0.00     0.057 A 
HETATM    8 CL   LIG     1      18.098  36.118  26.962  1.00  0.00    -0.082 Cl
HETATM    9  C   LIG     1      17.207  37.343  24.649  1.00  0.00     0.079 A 
HETATM   10 CL   LIG     1      17.327  38.872  25.520  1.00  0.00    -0.081 Cl
ENDROOT
TORSDOF 0
ENDMDL
MODEL 2
REMARK VINA RESULT:      -6.1      0.045      3.519
REMARK  0 active torsions:
REMARK  status: ('A' for Active; 'I' for Inactive)
ROOT
HETATM    1 CL   LIG     1      17.308  38.856  25.582  1.00  0.00    -0.081 Cl
HETATM    2  C   LIG     1      17.197  37.338  24.691  1.00  0.00     0.079 A 
HETATM    3  C   LIG     1      17.531  36.126  25.322  1.00  0.00     0.057 A 
HETATM    4 CL   LIG     1      18.065  36.083  26.998  1.00  0.00    -0.082 Cl
HETATM    5  C   LIG     1      17.443  34.922  24.615  1.00  0.00     0.027 A 
HETATM    6  C   LIG     1      17.023  34.917  23.284  1.00  0.00     0.027 A 
HETATM    7  C   LIG     1      16.689  36.115  22.647  1.00  0.00     0.057 A 
HETATM    8 CL   LIG     1      16.164  36.061  20.968  1.00  0.00    -0.082 Cl
HETATM    9  C   LIG     1      16.773  37.333  23.347  1.00  0.00     0.079 A 
HETATM   10 CL   LIG     1      16.350  38.844  22.542  1.00  0.00    -0.081 Cl
ENDROOT
TORSDOF 0
ENDMDL
MODEL 3
REMARK VINA RESULT:      -5.4      2.905      4.446
REMARK  0 active torsions:
REMARK  status: ('A' for Active; 'I' for Inactive)
ROOT
HETATM    1 CL   LIG     1      18.709  36.423  19.086  1.00  0.00    -0.081 Cl
HETATM    2  C   LIG     1      18.364  37.490  20.447  1.00  0.00     0.079 A 
HETATM    3  C   LIG     1      19.033  38.722  20.562  1.00  0.00     0.057 A 
HETATM    4 CL   LIG     1      20.221  39.234  19.369  1.00  0.00    -0.082 Cl
HETATM    5  C   LIG     1      18.760  39.568  21.642  1.00  0.00     0.027 A 
HETATM    6  C   LIG     1      17.824  39.196  22.607  1.00  0.00     0.027 A 
HETATM    7  C   LIG     1      17.153  37.974  22.504  1.00  0.00     0.057 A 
HETATM    8 CL   LIG     1      15.981  37.547  23.745  1.00  0.00    -0.082 Cl
HETATM    9  C   LIG     1      17.419  37.115  21.423  1.00  0.00     0.079 A 
HETATM   10 CL   LIG     1      16.571  35.573  21.292  1.00  0.00    -0.081 Cl
ENDROOT
TORSDOF 0
ENDMDL
MODEL 4
REMARK VINA RESULT:      -5.4      2.901      5.029
REMARK  0 active torsions:
REMARK  status: ('A' for Active; 'I' for Inactive)
ROOT
HETATM    1 CL   LIG     1      16.677  35.508  21.386  1.00  0.00    -0.081 Cl
HETATM    2  C   LIG     1      17.467  37.083  21.476  1.00  0.00     0.079 A 
HETATM    3  C   LIG     1      17.179  37.954  22.543  1.00  0.00     0.057 A 
HETATM    4 CL   LIG     1      16.037  37.509  23.805  1.00  0.00    -0.082 Cl
HETATM    5  C   LIG     1      17.806  39.202  22.614  1.00  0.00     0.027 A 
HETATM    6  C   LIG     1      18.717  39.588  21.631  1.00  0.00     0.027 A 
HETATM    7  C   LIG     1      19.011  38.732  20.566  1.00  0.00     0.057 A 
HETATM    8 CL   LIG     1      20.167  39.262  19.350  1.00  0.00    -0.082 Cl
HETATM    9  C   LIG     1      18.388  37.473  20.483  1.00  0.00     0.079 A 
HETATM   10 CL   LIG     1      18.759  36.392  19.140  1.00  0.00    -0.081 Cl
ENDROOT
TORSDOF 0
ENDMDL
MODEL 5
REMARK VINA RESULT:      -5.3      8.391     10.813
REMARK  0 active torsions:
REMARK  status: ('A' for Active; 'I' for Inactive)
ROOT
HETATM    1 CL   LIG     1      16.818  32.945  15.012  1.00  0.00    -0.081 Cl
HETATM    2  C   LIG     1      15.343  32.114  15.508  1.00  0.00     0.079 A 
HETATM    3  C   LIG     1      14.645  32.542  16.652  1.00  0.00     0.057 A 
HETATM    4 CL   LIG     1      15.213  33.901  17.616  1.00  0.00    -0.082 Cl
HETATM    5  C   LIG     1      13.476  31.884  17.045  1.00  0.00     0.027 A 
HETATM    6  C   LIG     1      12.995  30.803  16.305  1.00  0.00     0.027 A 
HETATM    7  C   LIG     1      13.679  30.369  15.167  1.00  0.00     0.057 A 
HETATM    8 CL   LIG     1      13.036  29.001  14.265  1.00  0.00    -0.082 Cl
HETATM    9  C   LIG     1      14.856  31.022  14.761  1.00  0.00     0.079 A 
HETATM   10 CL   LIG     1      15.719  30.475  13.323  1.00  0.00    -0.081 Cl
ENDROOT
TORSDOF 0
ENDMDL
MODEL 6
REMARK VINA RESULT:      -5.2      2.732      4.009
REMARK  0 active torsions:
REMARK  status: ('A' for Active; 'I' for Inactive)
ROOT
HETATM    1 CL   LIG     1      15.974  37.763  23.403  1.00  0.00    -0.081 Cl
HETATM    2  C   LIG     1      16.944  37.402  21.975  1.00  0.00     0.079 A 
HETATM    3  C   LIG     1      16.703  36.227  21.239  1.00  0.00     0.057 A 
HETATM    4 CL   LIG     1      15.444  35.092  21.714  1.00  0.00    -0.082 Cl
HETATM    5  C   LIG     1      17.472  35.941  20.107  1.00  0.00     0.027 A 
HETATM    6  C   LIG     1      18.478  36.817  19.701  1.00  0.00     0.027 A 
HETATM    7  C   LIG     1      18.727  37.988  20.423  1.00  0.00     0.057 A 
HETATM    8 CL   LIG     1      20.007  39.063  19.874  1.00  0.00    -0.082 Cl
HETATM    9  C   LIG     1      17.961  38.287  21.564  1.00  0.00     0.079 A 
HETATM   10 CL   LIG     1      18.274  39.764  22.475  1.00  0.00    -0.081 Cl
ENDROOT
TORSDOF 0
ENDMDL
MODEL 7
REMARK VINA RESULT:      -5.1      9.097     10.961
REMARK  0 active torsions:
REMARK  status: ('A' for Active; 'I' for Inactive)
ROOT
HETATM    1 CL   LIG     1      15.257  33.137  17.254  1.00  0.00    -0.081 Cl
HETATM    2  C   LIG     1      15.268  32.161  15.785  1.00  0.00     0.079 A 
HETATM    3  C   LIG     1      16.196  32.438  14.764  1.00  0.00     0.057 A 
HETATM    4 CL   LIG     1      17.359  33.750  14.915  1.00  0.00    -0.082 Cl
HETATM    5  C   LIG     1      16.204  31.664  13.599  1.00  0.00     0.027 A 
HETATM    6  C   LIG     1      15.297  30.616  13.444  1.00  0.00     0.027 A 
HETATM    7  C   LIG     1      14.371  30.331  14.451  1.00  0.00     0.057 A 
HETATM    8 CL   LIG     1      13.246  29.000  14.213  1.00  0.00    -0.082 Cl
HETATM    9  C   LIG     1      14.352  31.102  15.628  1.00  0.00     0.079 A 
HETATM   10 CL   LIG     1      13.183  30.742  16.899  1.00  0.00    -0.081 Cl
ENDROOT
TORSDOF 0
ENDMDL
MODEL 8
REMARK VINA RESULT:      -5.1      1.836      3.017
REMARK  0 active torsions:
REMARK  status: ('A' for Active; 'I' for Inactive)
ROOT
HETATM    1 CL   LIG     1      17.053  34.436  21.722  1.00  0.00    -0.081 Cl
HETATM    2  C   LIG     1      17.293  36.101  22.252  1.00  0.00     0.079 A 
HETATM    3  C   LIG     1      17.575  37.106  21.309  1.00  0.00     0.057 A 
HETATM    4 CL   LIG     1      17.699  36.740  19.591  1.00  0.00    -0.082 Cl
HETATM    5  C   LIG     1      17.765  38.426  21.729  1.00  0.00     0.027 A 
HETATM    6  C   LIG     1      17.674  38.753  23.082  1.00  0.00     0.027 A 
HETATM    7  C   LIG     1      17.394  37.764  24.028  1.00  0.00     0.057 A 
HETATM    8 CL   LIG     1      17.288  38.223  25.724  1.00  0.00    -0.082 Cl
HETATM    9  C   LIG     1      17.200  36.432  23.619  1.00  0.00     0.079 A 
HETATM   10 CL   LIG     1      16.846  35.184  24.813  1.00  0.00    -0.081 Cl
ENDROOT
TORSDOF 0
ENDMDL
MODEL 9
REMARK VINA RESULT:      -5.1      2.849      4.035
REMARK  0 active torsions:
REMARK  status: ('A' for Active; 'I' for Inactive)
ROOT
HETATM    1 CL   LIG     1      18.601  39.958  22.100  1.00  0.00    -0.081 Cl
HETATM    2  C   LIG     1      18.229  38.420  21.321  1.00  0.00     0.079 A 
HETATM    3  C   LIG     1      18.944  38.020  20.178  1.00  0.00     0.057 A 
HETATM    4 CL   LIG     1      20.215  39.027  19.494  1.00  0.00    -0.082 Cl
HETATM    5  C   LIG     1      18.649  36.800  19.560  1.00  0.00     0.027 A 
HETATM    6  C   LIG     1      17.648  35.976  20.074  1.00  0.00     0.027 A 
HETATM    7  C   LIG     1      16.931  36.362  21.209  1.00  0.00     0.057 A 
HETATM    8 CL   LIG     1      15.677  35.291  21.822  1.00  0.00    -0.082 Cl
HETATM    9  C   LIG     1      17.218  37.586  21.840  1.00  0.00     0.079 A 
HETATM   10 CL   LIG     1      16.313  38.074  23.274  1.00  0.00    -0.081 Cl
ENDROOT
TORSDOF 0
ENDMDL
MODEL 10
REMARK VINA RESULT:      -4.9      1.790      3.929
REMARK  0 active torsions:
REMARK  status: ('A' for Active; 'I' for Inactive)
ROOT
HETATM    1 CL   LIG     1      16.614  34.507  22.586  1.00  0.00    -0.081 Cl
HETATM    2  C   LIG     1      17.181  36.034  23.262  1.00  0.00     0.079 A 
HETATM    3  C   LIG     1      17.338  36.173  24.653  1.00  0.00     0.057 A 
HETATM    4 CL   LIG     1      16.978  34.845  25.751  1.00  0.00    -0.082 Cl
HETATM    5  C   LIG     1      17.787  37.384  25.189  1.00  0.00     0.027 A 
HETATM    6  C   LIG     1      18.082  38.458  24.349  1.00  0.00     0.027 A 
HETATM    7  C   LIG     1      17.930  38.333  22.966  1.00  0.00     0.057 A 
HETATM    8 CL   LIG     1      18.314  39.714  21.945  1.00  0.00    -0.082 Cl
HETATM    9  C   LIG     1      17.479  37.120  22.414  1.00  0.00     0.079 A 
HETATM   10 CL   LIG     1      17.288  36.962  20.668  1.00  0.00    -0.081 Cl
ENDROOT
TORSDOF 0
ENDMDL
MODEL 11
REMARK VINA RESULT:      -4.8      1.842      3.085
REMARK  0 active torsions:
REMARK  status: ('A' for Active; 'I' for Inactive)
ROOT
HETATM    1 CL   LIG     1      17.377  36.988  20.582  1.00  0.00    -0.081 Cl
HETATM    2  C   LIG     1      17.526  37.140  22.333  1.00  0.00     0.079 A 
HETATM    3  C   LIG     1      17.972  38.348  22.899  1.00  0.00     0.057 A 
HETATM    4 CL   LIG     1      18.393  39.730  21.893  1.00  0.00    -0.082 Cl
HETATM    5  C   LIG     1      18.090  38.469  24.287  1.00  0.00     0.027 A 
HETATM    6  C   LIG     1      17.765  37.395  25.116  1.00  0.00     0.027 A 
HETATM    7  C   LIG     1      17.320  36.190  24.566  1.00  0.00     0.057 A 
HETATM    8 CL   LIG     1      16.922  34.863  25.651  1.00  0.00    -0.082 Cl
HETATM    9  C   LIG     1      17.197  36.056  23.172  1.00  0.00     0.079 A 
HETATM   10 CL   LIG     1      16.635  34.535  22.477  1.00  0.00    -0.081 Cl
ENDROOT
TORSDOF 0
ENDMDL
MODEL 12
REMARK VINA RESULT:      -4.8      1.917      3.877
REMARK  0 active torsions:
REMARK  status: ('A' for Active; 'I' for Inactive)
ROOT
HETATM    1 CL   LIG     1      17.642  38.546  24.351  1.00  0.00    -0.081 Cl
HETATM    2  C   LIG     1      17.554  37.339  23.068  1.00  0.00     0.079 A 
HETATM    3  C   LIG     1      17.178  36.017  23.369  1.00  0.00     0.057 A 
HETATM    4 CL   LIG     1      16.790  35.529  25.015  1.00  0.00    -0.082 Cl
HETATM    5  C   LIG     1      17.108  35.061  22.352  1.00  0.00     0.027 A 
HETATM    6  C   LIG     1      17.408  35.411  21.036  1.00  0.00     0.027 A 
HETATM    7  C   LIG     1      17.783  36.720  20.723  1.00  0.00     0.057 A 
HETATM    8 CL   LIG     1      18.153  37.117  19.049  1.00  0.00    -0.082 Cl
HETATM    9  C   LIG     1      17.857  37.692  21.737  1.00  0.00     0.079 A 
HETATM   10 CL   LIG     1      18.329  39.345  21.343  1.00  0.00    -0.081 Cl
ENDROOT
TORSDOF 0
ENDMDL
MODEL 13
REMARK VINA RESULT:      -4.6      8.879     10.313
REMARK  0 active torsions:
REMARK  status: ('A' for Active; 'I' for Inactive)
ROOT
HETATM    1 CL   LIG     1      17.181  34.429  15.450  1.00  0.00    -0.081 Cl
HETATM    2  C   LIG     1      16.268  32.981  15.024  1.00  0.00     0.079 A 
HETATM    3  C   LIG     1      16.486  32.352  13.784  1.00  0.00     0.057 A 
HETATM    4 CL   LIG     1      17.658  32.982  12.632  1.00  0.00    -0.082 Cl
HETATM    5  C   LIG     1      15.763  31.204  13.446  1.00  0.00     0.027 A 
HETATM    6  C   LIG     1      14.826  30.676  14.334  1.00  0.00     0.027 A 
HETATM    7  C   LIG     1      14.600  31.292  15.568  1.00  0.00     0.057 A 
HETATM    8 CL   LIG     1      13.409  30.591  16.657  1.00  0.00    -0.082 Cl
HETATM    9  C   LIG     1      15.321  32.447  15.921  1.00  0.00     0.079 A 
HETATM   10 CL   LIG     1      15.038  33.223  17.479  1.00  0.00    -0.081 Cl
ENDROOT
TORSDOF 0
ENDMDL
MODEL 14
REMARK VINA RESULT:      -4.4      2.120      4.410
REMARK  0 active torsions:
REMARK  status: ('A' for Active; 'I' for Inactive)
ROOT
HETATM    1 CL   LIG     1      19.178  38.965  21.445  1.00  0.00    -0.081 Cl
HETATM    2  C   LIG     1      17.928  37.744  21.681  1.00  0.00     0.079 A 
HETATM    3  C   LIG     1      17.287  37.625  22.928  1.00  0.00     0.057 A 
HETATM    4 CL   LIG     1      17.706  38.676  24.276  1.00  0.00    -0.082 Cl
HETATM    5  C   LIG     1      16.296  36.657  23.115  1.00  0.00     0.027 A 
HETATM    6  C   LIG     1      15.937  35.807  22.068  1.00  0.00     0.027 A 
HETATM    7  C   LIG     1      16.566  35.915  20.826  1.00  0.00     0.057 A 
HETATM    8 CL   LIG     1      16.082  34.821  19.535  1.00  0.00    -0.082 Cl
HETATM    9  C   LIG     1      17.565  36.885  20.624  1.00  0.00     0.079 A 
HETATM   10 CL   LIG     1      18.359  37.022  19.055  1.00  0.00    -0.081 Cl
ENDROOT
TORSDOF 0
ENDMDL
MODEL 15
REMARK VINA RESULT:      -4.4      8.588     10.911
REMARK  0 active torsions:
REMARK  status: ('A' for Active; 'I' for Inactive)
ROOT
HETATM    1 CL   LIG     1      12.627  32.093  16.949  1.00  0.00    -0.081 Cl
HETATM    2  C   LIG     1      14.107  31.852  16.020  1.00  0.00     0.079 A 
HETATM    3  C   LIG     1      15.187  32.740  16.175  1.00  0.00     0.057 A 
HETATM    4 CL   LIG     1      15.099  34.104  17.284  1.00  0.00    -0.082 Cl
HETATM    5  C   LIG     1      16.360  32.549  15.438  1.00  0.00     0.027 A 
HETATM    6  C   LIG     1      16.466  31.479  14.549  1.00  0.00     0.027 A 
HETATM    7  C   LIG     1      15.400  30.590  14.387  1.00  0.00     0.057 A 
HETATM    8 CL   LIG     1      15.578  29.255  13.255  1.00  0.00    -0.082 Cl
HETATM    9  C   LIG     1      14.214  30.771  15.122  1.00  0.00     0.079 A 
HETATM   10 CL   LIG     1      12.869  29.649  14.918  1.00  0.00    -0.081 Cl
ENDROOT
TORSDOF 0
ENDMDL
MODEL 16
REMARK VINA RESULT:      -4.4      8.598     10.582
REMARK  0 active torsions:
REMARK  status: ('A' for Active; 'I' for Inactive)
ROOT
HETATM    1 CL   LIG     1      12.879  29.632  14.901  1.00  0.00    -0.081 Cl
HETATM    2  C   LIG     1      14.221  30.757  15.108  1.00  0.00     0.079 A 
HETATM    3  C   LIG     1      15.405  30.583  14.369  1.00  0.00     0.057 A 
HETATM    4 CL   LIG     1      15.587  29.255  13.230  1.00  0.00    -0.082 Cl
HETATM    5  C   LIG     1      16.469  31.476  14.534  1.00  0.00     0.027 A 
HETATM    6  C   LIG     1      16.361  32.541  15.429  1.00  0.00     0.027 A 
HETATM    7  C   LIG     1      15.190  32.724  16.168  1.00  0.00     0.057 A 
HETATM    8 CL   LIG     1      15.099  34.081  17.285  1.00  0.00    -0.082 Cl
HETATM    9  C   LIG     1      14.112  31.834  16.012  1.00  0.00     0.079 A 
HETATM   10 CL   LIG     1      12.634  32.065  16.945  1.00  0.00    -0.081 Cl
ENDROOT
TORSDOF 0
ENDMDL
MODEL 17
REMARK VINA RESULT:      -3.8      3.213      4.165
REMARK  0 active torsions:
REMARK  status: ('A' for Active; 'I' for Inactive)
ROOT
HETATM    1 CL   LIG     1      16.580  35.211  19.219  1.00  0.00    -0.081 Cl
HETATM    2  C   LIG     1      16.773  36.317  20.578  1.00  0.00     0.079 A 
HETATM    3  C   LIG     1      15.838  36.309  21.630  1.00  0.00     0.057 A 
HETATM    4 CL   LIG     1      14.463  35.212  21.623  1.00  0.00    -0.082 Cl
HETATM    5  C   LIG     1      15.992  37.186  22.708  1.00  0.00     0.027 A 
HETATM    6  C   LIG     1      17.070  38.070  22.748  1.00  0.00     0.027 A 
HETATM    7  C   LIG     1      18.005  38.088  21.709  1.00  0.00     0.057 A 
HETATM    8 CL   LIG     1      19.349  39.220  21.802  1.00  0.00    -0.082 Cl
HETATM    9  C   LIG     1      17.863  37.211  20.619  1.00  0.00     0.079 A 
HETATM   10 CL   LIG     1      19.043  37.232  19.309  1.00  0.00    -0.081 Cl
ENDROOT
TORSDOF 0
ENDMDL
MODEL 18
REMARK VINA RESULT:      -3.4     16.082     17.384
REMARK  0 active torsions:
REMARK  status: ('A' for Active; 'I' for Inactive)
ROOT
HETATM    1 CL   LIG     1      30.043  31.819  36.669  1.00  0.00    -0.081 Cl
HETATM    2  C   LIG     1      28.525  31.138  36.083  1.00  0.00     0.079 A 
HETATM    3  C   LIG     1      27.309  31.513  36.682  1.00  0.00     0.057 A 
HETATM    4 CL   LIG     1      27.261  32.657  38.019  1.00  0.00    -0.082 Cl
HETATM    5  C   LIG     1      26.105  30.974  36.217  1.00  0.00     0.027 A 
HETATM    6  C   LIG     1      26.104  30.064  35.160  1.00  0.00     0.027 A 
HETATM    7  C   LIG     1      27.306  29.684  34.556  1.00  0.00     0.057 A 
HETATM    8 CL   LIG     1      27.257  28.534  33.225  1.00  0.00    -0.082 Cl
HETATM    9  C   LIG     1      28.524  30.220  35.014  1.00  0.00     0.079 A 
HETATM   10 CL   LIG     1      30.041  29.741  34.252  1.00  0.00    -0.081 Cl
ENDROOT
TORSDOF 0
ENDMDL
MODEL 19
REMARK VINA RESULT:      -3.4     17.355     19.657
REMARK  0 active torsions:
REMARK  status: ('A' for Active; 'I' for Inactive)
ROOT
HETATM    1 CL   LIG     1      21.194  19.998  37.425  1.00  0.00    -0.081 Cl
HETATM    2  C   LIG     1      21.369  21.380  36.343  1.00  0.00     0.079 A 
HETATM    3  C   LIG     1      22.271  22.412  36.660  1.00  0.00     0.057 A 
HETATM    4 CL   LIG     1      23.239  22.363  38.128  1.00  0.00    -0.082 Cl
HETATM    5  C   LIG     1      22.409  23.507  35.801  1.00  0.00     0.027 A 
HETATM    6  C   LIG     1      21.658  23.581  34.628  1.00  0.00     0.027 A 
HETATM    7  C   LIG     1      20.759  22.561  34.302  1.00  0.00     0.057 A 
HETATM    8 CL   LIG     1      19.833  22.697  32.812  1.00  0.00    -0.082 Cl
HETATM    9  C   LIG     1      20.611  21.454  35.157  1.00  0.00     0.079 A 
HETATM   10 CL   LIG     1      19.477  20.167  34.745  1.00  0.00    -0.081 Cl
ENDROOT
TORSDOF 0
ENDMDL
MODEL 20
REMARK VINA RESULT:      -3.4     17.346     19.323
REMARK  0 active torsions:
REMARK  status: ('A' for Active; 'I' for Inactive)
ROOT
HETATM    1 CL   LIG     1      19.527  20.044  34.684  1.00  0.00    -0.081 Cl
HETATM    2  C   LIG     1      20.611  21.380  35.075  1.00  0.00     0.079 A 
HETATM    3  C   LIG     1      20.723  22.475  34.198  1.00  0.00     0.057 A 
HETATM    4 CL   LIG     1      19.799  22.547  32.702  1.00  0.00    -0.082 Cl
HETATM    5  C   LIG     1      21.582  23.533  34.508  1.00  0.00     0.027 A 
HETATM    6  C   LIG     1      22.330  23.511  35.686  1.00  0.00     0.027 A 
HETATM    7  C   LIG     1      22.227  22.429  36.564  1.00  0.00     0.057 A 
HETATM    8 CL   LIG     1      23.190  22.443  38.037  1.00  0.00    -0.082 Cl
HETATM    9  C   LIG     1      21.367  21.357  36.264  1.00  0.00     0.079 A 
HETATM   10 CL   LIG     1      21.237  19.992  37.373  1.00  0.00    -0.081 Cl
ENDROOT
TORSDOF 0
ENDMDL
