MODEL 1
REMARK VINA RESULT:      -6.1      0.000      0.000
REMARK  0 active torsions:
REMARK  status: ('A' for Active; 'I' for Inactive)
ROOT
HETATM    1 CL   LIG     1      17.500  38.161  25.668  1.00  0.00    -0.081 Cl
HETATM    2  C   LIG     1      17.159  37.096  24.304  1.00  0.00     0.077 A 
HETATM    3  C   LIG     1      17.230  35.699  24.460  1.00  0.00     0.059 A 
HETATM    4 CL   LIG     1      17.657  34.974  26.004  1.00  0.00    -0.082 Cl
HETATM    5  C   LIG     1      16.958  34.860  23.374  1.00  0.00     0.049 A 
HETATM    6  C   LIG     1      16.615  35.402  22.132  1.00  0.00     0.037 A 
HETATM    7 CL   LIG     1      16.276  34.345  20.775  1.00  0.00    -0.084 Cl
HETATM    8  C   LIG     1      16.543  36.789  21.972  1.00  0.00     0.049 A 
HETATM    9  C   LIG     1      16.813  37.639  23.051  1.00  0.00     0.059 A 
HETATM   10 CL   LIG     1      16.710  39.377  22.806  1.00  0.00    -0.082 Cl
ENDROOT
TORSDOF 0
ENDMDL
MODEL 2
REMARK VINA RESULT:      -6.1      0.035      2.909
REMARK  0 active torsions:
REMARK  status: ('A' for Active; 'I' for Inactive)
ROOT
HETATM    1 CL   LIG     1      17.534  38.146  25.655  1.00  0.00    -0.081 Cl
HETATM    2  C   LIG     1      17.183  37.091  24.287  1.00  0.00     0.077 A 
HETATM    3  C   LIG     1      16.849  37.641  23.035  1.00  0.00     0.059 A 
HETATM    4 CL   LIG     1      16.770  39.381  22.795  1.00  0.00    -0.082 Cl
HETATM    5  C   LIG     1      16.571  36.798  21.953  1.00  0.00     0.049 A 
HETATM    6  C   LIG     1      16.624  35.410  22.109  1.00  0.00     0.037 A 
HETATM    7 CL   LIG     1      16.275  34.360  20.748  1.00  0.00    -0.084 Cl
HETATM    8  C   LIG     1      16.955  34.859  23.350  1.00  0.00     0.049 A 
HETATM    9  C   LIG     1      17.235  35.691  24.439  1.00  0.00     0.059 A 
HETATM   10 CL   LIG     1      17.648  34.955  25.982  1.00  0.00    -0.082 Cl
ENDROOT
TORSDOF 0
ENDMDL
MODEL 3
REMARK VINA RESULT:      -5.9      1.906      3.981
REMARK  0 active torsions:
REMARK  status: ('A' for Active; 'I' for Inactive)
ROOT
HETATM    1 CL   LIG     1      18.040  36.693  19.300  1.00  0.00    -0.081 Cl
HETATM    2  C   LIG     1      17.796  37.148  20.985  1.00  0.00     0.077 A 
HETATM    3  C   LIG     1      17.120  36.280  21.864  1.00  0.00     0.059 A 
HETATM    4 CL   LIG     1      16.502  34.728  21.317  1.00  0.00    -0.082 Cl
HETATM    5  C   LIG     1      16.930  36.648  23.201  1.00  0.00     0.049 A 
HETATM    6  C   LIG     1      17.408  37.875  23.669  1.00  0.00     0.037 A 
HETATM    7 CL   LIG     1      17.165  38.329  25.346  1.00  0.00    -0.084 Cl
HETATM    8  C   LIG     1      18.080  38.741  22.801  1.00  0.00     0.049 A 
HETATM    9  C   LIG     1      18.276  38.384  21.462  1.00  0.00     0.059 A 
HETATM   10 CL   LIG     1      19.127  39.502  20.405  1.00  0.00    -0.082 Cl
ENDROOT
TORSDOF 0
ENDMDL
MODEL 4
REMARK VINA RESULT:      -5.5      2.042      3.395
REMARK  0 active torsions:
REMARK  status: ('A' for Active; 'I' for Inactive)
ROOT
HETATM    1 CL   LIG     1      18.610  39.268  22.243  1.00  0.00    -0.081 Cl
HETATM    2  C   LIG     1      17.826  37.762  21.766  1.00  0.00     0.077 A 
HETATM    3  C   LIG     1      18.084  37.197  20.504  1.00  0.00     0.059 A 
HETATM    4 CL   LIG     1      19.187  37.964  19.369  1.00  0.00    -0.082 Cl
HETATM    5  C   LIG     1      17.459  36.001  20.132  1.00  0.00     0.049 A 
HETATM    6  C   LIG     1      16.577  35.365  21.009  1.00  0.00     0.037 A 
HETATM    7 CL   LIG     1      15.796  33.867  20.536  1.00  0.00    -0.084 Cl
HETATM    8  C   LIG     1      16.316  35.922  22.264  1.00  0.00     0.049 A 
HETATM    9  C   LIG     1      16.936  37.117  22.648  1.00  0.00     0.059 A 
HETATM   10 CL   LIG     1      16.580  37.783  24.236  1.00  0.00    -0.082 Cl
ENDROOT
TORSDOF 0
ENDMDL
MODEL 5
REMARK VINA RESULT:      -5.5      2.056      2.784
REMARK  0 active torsions:
REMARK  status: ('A' for Active; 'I' for Inactive)
ROOT
HETATM    1 CL   LIG     1      18.640  39.269  22.257  1.00  0.00    -0.081 Cl
HETATM    2  C   LIG     1      17.843  37.774  21.768  1.00  0.00     0.077 A 
HETATM    3  C   LIG     1      16.932  37.140  22.634  1.00  0.00     0.059 A 
HETATM    4 CL   LIG     1      16.561  37.808  24.217  1.00  0.00    -0.082 Cl
HETATM    5  C   LIG     1      16.303  35.954  22.238  1.00  0.00     0.049 A 
HETATM    6  C   LIG     1      16.575  35.394  20.987  1.00  0.00     0.037 A 
HETATM    7 CL   LIG     1      15.782  33.907  20.499  1.00  0.00    -0.084 Cl
HETATM    8  C   LIG     1      17.478  36.020  20.124  1.00  0.00     0.049 A 
HETATM    9  C   LIG     1      18.113  37.207  20.507  1.00  0.00     0.059 A 
HETATM   10 CL   LIG     1      19.243  37.961  19.390  1.00  0.00    -0.082 Cl
ENDROOT
TORSDOF 0
ENDMDL
MODEL 6
REMARK VINA RESULT:      -5.4      1.449      3.369
REMARK  0 active torsions:
REMARK  status: ('A' for Active; 'I' for Inactive)
ROOT
HETATM    1 CL   LIG     1      16.707  34.944  24.552  1.00  0.00    -0.081 Cl
HETATM    2  C   LIG     1      17.173  36.240  23.450  1.00  0.00     0.077 A 
HETATM    3  C   LIG     1      17.152  36.028  22.059  1.00  0.00     0.059 A 
HETATM    4 CL   LIG     1      16.665  34.482  21.378  1.00  0.00    -0.082 Cl
HETATM    5  C   LIG     1      17.522  37.061  21.190  1.00  0.00     0.049 A 
HETATM    6  C   LIG     1      17.915  38.302  21.697  1.00  0.00     0.037 A 
HETATM    7 CL   LIG     1      18.378  39.592  20.601  1.00  0.00    -0.084 Cl
HETATM    8  C   LIG     1      17.937  38.517  23.078  1.00  0.00     0.049 A 
HETATM    9  C   LIG     1      17.568  37.493  23.957  1.00  0.00     0.059 A 
HETATM   10 CL   LIG     1      17.610  37.806  25.687  1.00  0.00    -0.082 Cl
ENDROOT
TORSDOF 0
ENDMDL
MODEL 7
REMARK VINA RESULT:      -5.0      2.589      3.834
REMARK  0 active torsions:
REMARK  status: ('A' for Active; 'I' for Inactive)
ROOT
HETATM    1 CL   LIG     1      15.464  36.921  22.818  1.00  0.00    -0.081 Cl
HETATM    2  C   LIG     1      16.861  37.354  21.832  1.00  0.00     0.077 A 
HETATM    3  C   LIG     1      17.338  36.466  20.851  1.00  0.00     0.059 A 
HETATM    4 CL   LIG     1      16.568  34.910  20.575  1.00  0.00    -0.082 Cl
HETATM    5  C   LIG     1      18.447  36.816  20.072  1.00  0.00     0.049 A 
HETATM    6  C   LIG     1      19.085  38.044  20.264  1.00  0.00     0.037 A 
HETATM    7 CL   LIG     1      20.474  38.476  19.284  1.00  0.00    -0.084 Cl
HETATM    8  C   LIG     1      18.614  38.930  21.238  1.00  0.00     0.049 A 
HETATM    9  C   LIG     1      17.506  38.592  22.023  1.00  0.00     0.059 A 
HETATM   10 CL   LIG     1      16.947  39.736  23.236  1.00  0.00    -0.082 Cl
ENDROOT
TORSDOF 0
ENDMDL
MODEL 8
REMARK VINA RESULT:      -4.9      8.035     10.068
REMARK  0 active torsions:
REMARK  status: ('A' for Active; 'I' for Inactive)
ROOT
HETATM    1 CL   LIG     1      13.366  30.683  17.011  1.00  0.00    -0.081 Cl
HETATM    2  C   LIG     1      14.550  31.360  15.893  1.00  0.00     0.077 A 
HETATM    3  C   LIG     1      14.752  30.771  14.631  1.00  0.00     0.059 A 
HETATM    4 CL   LIG     1      13.840  29.354  14.129  1.00  0.00    -0.082 Cl
HETATM    5  C   LIG     1      15.693  31.315  13.749  1.00  0.00     0.049 A 
HETATM    6  C   LIG     1      16.435  32.440  14.115  1.00  0.00     0.037 A 
HETATM    7 CL   LIG     1      17.612  33.116  13.004  1.00  0.00    -0.084 Cl
HETATM    8  C   LIG     1      16.238  33.029  15.368  1.00  0.00     0.049 A 
HETATM    9  C   LIG     1      15.300  32.496  16.258  1.00  0.00     0.059 A 
HETATM   10 CL   LIG     1      15.084  33.268  17.823  1.00  0.00    -0.082 Cl
ENDROOT
TORSDOF 0
ENDMDL
MODEL 9
REMARK VINA RESULT:      -4.9      8.038     10.130
REMARK  0 active torsions:
REMARK  status: ('A' for Active; 'I' for Inactive)
ROOT
HETATM    1 CL   LIG     1      13.383  30.686  16.963  1.00  0.00    -0.081 Cl
HETATM    2  C   LIG     1      14.579  31.373  15.864  1.00  0.00     0.077 A 
HETATM    3  C   LIG     1      15.327  32.502  16.247  1.00  0.00     0.059 A 
HETATM    4 CL   LIG     1      15.099  33.258  17.818  1.00  0.00    -0.082 Cl
HETATM    5  C   LIG     1      16.275  33.042  15.370  1.00  0.00     0.049 A 
HETATM    6  C   LIG     1      16.482  32.466  14.114  1.00  0.00     0.037 A 
HETATM    7 CL   LIG     1      17.671  33.149  13.019  1.00  0.00    -0.084 Cl
HETATM    8  C   LIG     1      15.741  31.345  13.729  1.00  0.00     0.049 A 
HETATM    9  C   LIG     1      14.791  30.795  14.597  1.00  0.00     0.059 A 
HETATM   10 CL   LIG     1      13.881  29.385  14.073  1.00  0.00    -0.082 Cl
ENDROOT
TORSDOF 0
ENDMDL
MODEL 10
REMARK VINA RESULT:      -4.9      1.233      3.681
REMARK  0 active torsions:
REMARK  status: ('A' for Active; 'I' for Inactive)
ROOT
HETATM    1 CL   LIG     1      16.088  38.357  22.541  1.00  0.00    -0.081 Cl
HETATM    2  C   LIG     1      16.802  37.259  23.722  1.00  0.00     0.077 A 
HETATM    3  C   LIG     1      17.293  37.754  24.944  1.00  0.00     0.059 A 
HETATM    4 CL   LIG     1      17.212  39.467  25.334  1.00  0.00    -0.082 Cl
HETATM    5  C   LIG     1      17.858  36.877  25.877  1.00  0.00     0.049 A 
HETATM    6  C   LIG     1      17.939  35.510  25.601  1.00  0.00     0.037 A 
HETATM    7 CL   LIG     1      18.649  34.416  26.774  1.00  0.00    -0.084 Cl
HETATM    8  C   LIG     1      17.452  35.013  24.388  1.00  0.00     0.049 A 
HETATM    9  C   LIG     1      16.884  35.880  23.447  1.00  0.00     0.059 A 
HETATM   10 CL   LIG     1      16.285  35.212  21.935  1.00  0.00    -0.082 Cl
ENDROOT
TORSDOF 0
ENDMDL
MODEL 11
REMARK VINA RESULT:      -4.8      8.474      9.856
REMARK  0 active torsions:
REMARK  status: ('A' for Active; 'I' for Inactive)
ROOT
HETATM    1 CL   LIG     1      15.097  33.998  16.785  1.00  0.00    -0.081 Cl
HETATM    2  C   LIG     1      15.115  32.484  15.882  1.00  0.00     0.077 A 
HETATM    3  C   LIG     1      14.031  31.591  15.972  1.00  0.00     0.059 A 
HETATM    4 CL   LIG     1      12.634  31.951  16.978  1.00  0.00    -0.082 Cl
HETATM    5  C   LIG     1      14.052  30.391  15.252  1.00  0.00     0.049 A 
HETATM    6  C   LIG     1      15.146  30.073  14.443  1.00  0.00     0.037 A 
HETATM    7 CL   LIG     1      15.165  28.568  13.543  1.00  0.00    -0.084 Cl
HETATM    8  C   LIG     1      16.226  30.957  14.350  1.00  0.00     0.049 A 
HETATM    9  C   LIG     1      16.216  32.160  15.064  1.00  0.00     0.059 A 
HETATM   10 CL   LIG     1      17.595  33.241  14.918  1.00  0.00    -0.082 Cl
ENDROOT
TORSDOF 0
ENDMDL
MODEL 12
REMARK VINA RESULT:      -4.7      8.488     10.197
REMARK  0 active torsions:
REMARK  status: ('A' for Active; 'I' for Inactive)
ROOT
HETATM    1 CL   LIG     1      16.553  33.985  15.893  1.00  0.00    -0.081 Cl
HETATM    2  C   LIG     1      15.709  32.524  15.380  1.00  0.00     0.077 A 
HETATM    3  C   LIG     1      15.960  31.970  14.111  1.00  0.00     0.059 A 
HETATM    4 CL   LIG     1      17.110  32.707  13.004  1.00  0.00    -0.082 Cl
HETATM    5  C   LIG     1      15.287  30.810  13.710  1.00  0.00     0.049 A 
HETATM    6  C   LIG     1      14.366  30.198  14.564  1.00  0.00     0.037 A 
HETATM    7 CL   LIG     1      13.526  28.744  14.055  1.00  0.00    -0.084 Cl
HETATM    8  C   LIG     1      14.114  30.744  15.826  1.00  0.00     0.049 A 
HETATM    9  C   LIG     1      14.780  31.904  16.238  1.00  0.00     0.059 A 
HETATM   10 CL   LIG     1      14.433  32.557  17.833  1.00  0.00    -0.082 Cl
ENDROOT
TORSDOF 0
ENDMDL
MODEL 13
REMARK VINA RESULT:      -4.6      1.153      3.366
REMARK  0 active torsions:
REMARK  status: ('A' for Active; 'I' for Inactive)
ROOT
HETATM    1 CL   LIG     1      16.357  38.142  22.074  1.00  0.00    -0.081 Cl
HETATM    2  C   LIG     1      16.917  37.118  23.395  1.00  0.00     0.077 A 
HETATM    3  C   LIG     1      16.944  35.719  23.244  1.00  0.00     0.059 A 
HETATM    4 CL   LIG     1      16.426  34.951  21.749  1.00  0.00    -0.082 Cl
HETATM    5  C   LIG     1      17.390  34.911  24.297  1.00  0.00     0.049 A 
HETATM    6  C   LIG     1      17.809  35.487  25.499  1.00  0.00     0.037 A 
HETATM    7 CL   LIG     1      18.366  34.469  26.814  1.00  0.00    -0.084 Cl
HETATM    8  C   LIG     1      17.784  36.876  25.654  1.00  0.00     0.049 A 
HETATM    9  C   LIG     1      17.341  37.695  24.608  1.00  0.00     0.059 A 
HETATM   10 CL   LIG     1      17.327  39.437  24.845  1.00  0.00    -0.082 Cl
ENDROOT
TORSDOF 0
ENDMDL
MODEL 14
REMARK VINA RESULT:      -4.0      7.347      9.247
REMARK  0 active torsions:
REMARK  status: ('A' for Active; 'I' for Inactive)
ROOT
HETATM    1 CL   LIG     1      17.262  34.389  15.302  1.00  0.00    -0.081 Cl
HETATM    2  C   LIG     1      16.015  33.175  15.582  1.00  0.00     0.077 A 
HETATM    3  C   LIG     1      15.221  33.228  16.743  1.00  0.00     0.059 A 
HETATM    4 CL   LIG     1      15.443  34.493  17.943  1.00  0.00    -0.082 Cl
HETATM    5  C   LIG     1      14.233  32.260  16.958  1.00  0.00     0.049 A 
HETATM    6  C   LIG     1      14.030  31.240  16.026  1.00  0.00     0.037 A 
HETATM    7 CL   LIG     1      12.789  30.031  16.303  1.00  0.00    -0.084 Cl
HETATM    8  C   LIG     1      14.815  31.183  14.871  1.00  0.00     0.049 A 
HETATM    9  C   LIG     1      15.806  32.145  14.644  1.00  0.00     0.059 A 
HETATM   10 CL   LIG     1      16.771  32.035  13.178  1.00  0.00    -0.082 Cl
ENDROOT
TORSDOF 0
ENDMDL
MODEL 15
REMARK VINA RESULT:      -3.8      2.151      3.593
REMARK  0 active torsions:
REMARK  status: ('A' for Active; 'I' for Inactive)
ROOT
HETATM    1 CL   LIG     1      16.636  37.463  24.479  1.00  0.00    -0.081 Cl
HETATM    2  C   LIG     1      17.213  37.348  22.816  1.00  0.00     0.077 A 
HETATM    3  C   LIG     1      17.746  38.479  22.171  1.00  0.00     0.059 A 
HETATM    4 CL   LIG     1      17.856  40.031  22.991  1.00  0.00    -0.082 Cl
HETATM    5  C   LIG     1      18.203  38.380  20.852  1.00  0.00     0.049 A 
HETATM    6  C   LIG     1      18.130  37.163  20.170  1.00  0.00     0.037 A 
HETATM    7 CL   LIG     1      18.703  37.047  18.516  1.00  0.00    -0.084 Cl
HETATM    8  C   LIG     1      17.601  36.037  20.806  1.00  0.00     0.049 A 
HETATM    9  C   LIG     1      17.142  36.122  22.125  1.00  0.00     0.059 A 
HETATM   10 CL   LIG     1      16.484  34.681  22.887  1.00  0.00    -0.082 Cl
ENDROOT
TORSDOF 0
ENDMDL
MODEL 16
REMARK VINA RESULT:      -3.8      1.759      1.960
REMARK  0 active torsions:
REMARK  status: ('A' for Active; 'I' for Inactive)
ROOT
HETATM    1 CL   LIG     1      16.837  37.755  25.000  1.00  0.00    -0.081 Cl
HETATM    2  C   LIG     1      17.229  37.395  23.318  1.00  0.00     0.077 A 
HETATM    3  C   LIG     1      17.278  36.062  22.872  1.00  0.00     0.059 A 
HETATM    4 CL   LIG     1      16.954  34.721  23.962  1.00  0.00    -0.082 Cl
HETATM    5  C   LIG     1      17.589  35.783  21.536  1.00  0.00     0.049 A 
HETATM    6  C   LIG     1      17.853  36.824  20.642  1.00  0.00     0.037 A 
HETATM    7 CL   LIG     1      18.242  36.468  18.969  1.00  0.00    -0.084 Cl
HETATM    8  C   LIG     1      17.805  38.151  21.080  1.00  0.00     0.049 A 
HETATM    9  C   LIG     1      17.494  38.442  22.414  1.00  0.00     0.059 A 
HETATM   10 CL   LIG     1      17.445  40.124  22.923  1.00  0.00    -0.082 Cl
ENDROOT
TORSDOF 0
ENDMDL
MODEL 17
REMARK VINA RESULT:      -3.3     15.651     16.984
REMARK  0 active torsions:
REMARK  status: ('A' for Active; 'I' for Inactive)
ROOT
HETATM    1 CL   LIG     1      25.979  23.760  20.679  1.00  0.00    -0.081 Cl
HETATM    2  C   LIG     1      24.974  22.643  19.756  1.00  0.00     0.077 A 
HETATM    3  C   LIG     1      25.470  22.051  18.579  1.00  0.00     0.059 A 
HETATM    4 CL   LIG     1      27.091  22.400  17.994  1.00  0.00    -0.082 Cl
HETATM    5  C   LIG     1      24.667  21.164  17.852  1.00  0.00     0.049 A 
HETATM    6  C   LIG     1      23.374  20.864  18.287  1.00  0.00     0.037 A 
HETATM    7 CL   LIG     1      22.374  19.752  17.370  1.00  0.00    -0.084 Cl
HETATM    8  C   LIG     1      22.877  21.449  19.456  1.00  0.00     0.049 A 
HETATM    9  C   LIG     1      23.670  22.337  20.192  1.00  0.00     0.059 A 
HETATM   10 CL   LIG     1      23.006  23.050  21.655  1.00  0.00    -0.082 Cl
ENDROOT
TORSDOF 0
ENDMDL
MODEL 18
REMARK VINA RESULT:      -3.3     15.591     16.925
REMARK  0 active torsions:
REMARK  status: ('A' for Active; 'I' for Inactive)
ROOT
HETATM    1 CL   LIG     1      25.915  23.921  20.535  1.00  0.00    -0.081 Cl
HETATM    2  C   LIG     1      24.941  22.718  19.691  1.00  0.00     0.077 A 
HETATM    3  C   LIG     1      23.658  22.385  20.164  1.00  0.00     0.059 A 
HETATM    4 CL   LIG     1      22.988  23.150  21.599  1.00  0.00    -0.082 Cl
HETATM    5  C   LIG     1      22.890  21.430  19.489  1.00  0.00     0.049 A 
HETATM    6  C   LIG     1      23.392  20.802  18.346  1.00  0.00     0.037 A 
HETATM    7 CL   LIG     1      22.424  19.605  17.505  1.00  0.00    -0.084 Cl
HETATM    8  C   LIG     1      24.666  21.129  17.871  1.00  0.00     0.049 A 
HETATM    9  C   LIG     1      25.443  22.084  18.538  1.00  0.00     0.059 A 
HETATM   10 CL   LIG     1      27.039  22.465  17.907  1.00  0.00    -0.082 Cl
ENDROOT
TORSDOF 0
ENDMDL
MODEL 19
REMARK VINA RESULT:      -3.3     16.235     16.863
REMARK  0 active torsions:
REMARK  status: ('A' for Active; 'I' for Inactive)
ROOT
HETATM    1 CL   LIG     1      29.247  28.124  31.887  1.00  0.00    -0.081 Cl
HETATM    2  C   LIG     1      28.277  29.042  33.038  1.00  0.00     0.077 A 
HETATM    3  C   LIG     1      28.664  30.342  33.413  1.00  0.00     0.059 A 
HETATM    4 CL   LIG     1      30.114  31.089  32.754  1.00  0.00    -0.082 Cl
HETATM    5  C   LIG     1      27.889  31.066  34.327  1.00  0.00     0.049 A 
HETATM    6  C   LIG     1      26.732  30.503  34.871  1.00  0.00     0.037 A 
HETATM    7 CL   LIG     1      25.766  31.416  36.016  1.00  0.00    -0.084 Cl
HETATM    8  C   LIG     1      26.343  29.212  34.501  1.00  0.00     0.049 A 
HETATM    9  C   LIG     1      27.109  28.479  33.588  1.00  0.00     0.059 A 
HETATM   10 CL   LIG     1      26.583  26.859  33.151  1.00  0.00    -0.082 Cl
ENDROOT
TORSDOF 0
ENDMDL
MODEL 20
REMARK VINA RESULT:      -3.3     15.998     16.691
REMARK  0 active torsions:
REMARK  status: ('A' for Active; 'I' for Inactive)
ROOT
HETATM    1 CL   LIG     1      22.966  20.688  21.564  1.00  0.00    -0.081 Cl
HETATM    2  C   LIG     1      23.961  21.750  20.569  1.00  0.00     0.077 A 
HETATM    3  C   LIG     1      23.871  21.695  19.166  1.00  0.00     0.059 A 
HETATM    4 CL   LIG     1      22.775  20.578  18.364  1.00  0.00    -0.082 Cl
HETATM    5  C   LIG     1      24.664  22.541  18.382  1.00  0.00     0.049 A 
HETATM    6  C   LIG     1      25.546  23.441  18.986  1.00  0.00     0.037 A 
HETATM    7 CL   LIG     1      26.537  24.498  17.997  1.00  0.00    -0.084 Cl
HETATM    8  C   LIG     1      25.639  23.499  20.379  1.00  0.00     0.049 A 
HETATM    9  C   LIG     1      24.851  22.658  21.174  1.00  0.00     0.059 A 
HETATM   10 CL   LIG     1      24.999  22.765  22.923  1.00  0.00    -0.082 Cl
ENDROOT
TORSDOF 0
ENDMDL
