REMARK  0 active torsions:
REMARK  status: ('A' for Active; 'I' for Inactive)
ROOT
HETATM    1 CL   LIG     1      -3.111   0.238   0.030  1.00  0.00    -0.081 Cl
HETATM    2  C   LIG     1      -1.353   0.103   0.013  1.00  0.00     0.077 A 
HETATM    3  C   LIG     1      -0.739  -1.163   0.047  1.00  0.00     0.059 A 
HETATM    4 CL   LIG     1      -1.693  -2.639   0.107  1.00  0.00    -0.082 Cl
HETATM    5  C   LIG     1       0.657  -1.263   0.033  1.00  0.00     0.049 A 
HETATM    6  C   LIG     1       1.446  -0.111  -0.014  1.00  0.00     0.037 A 
HETATM    7 CL   LIG     1       3.195  -0.244  -0.031  1.00  0.00    -0.084 Cl
HETATM    8  C   LIG     1       0.841   1.149  -0.048  1.00  0.00     0.049 A 
HETATM    9  C   LIG     1      -0.554   1.262  -0.035  1.00  0.00     0.059 A 
HETATM   10 CL   LIG     1      -1.273   2.866  -0.079  1.00  0.00    -0.082 Cl
ENDROOT
TORSDOF 0
