REMARK  0 active torsions:
REMARK  status: ('A' for Active; 'I' for Inactive)
ROOT
HETATM    1 CL   LIG     1      -2.338   2.026  -0.008  1.00  0.00    -0.081 Cl
HETATM    2  C   LIG     1      -1.020   0.854  -0.003  1.00  0.00     0.079 A 
HETATM    3  C   LIG     1      -1.304  -0.524  -0.007  1.00  0.00     0.057 A 
HETATM    4 CL   LIG     1      -2.961  -1.117  -0.015  1.00  0.00    -0.082 Cl
HETATM    5  C   LIG     1      -0.259  -1.453  -0.003  1.00  0.00     0.027 A 
HETATM    6  C   LIG     1       1.067  -1.020   0.003  1.00  0.00     0.027 A 
HETATM    7  C   LIG     1       1.362   0.346   0.007  1.00  0.00     0.057 A 
HETATM    8 CL   LIG     1       3.049   0.846   0.015  1.00  0.00    -0.082 Cl
HETATM    9  C   LIG     1       0.320   1.291   0.003  1.00  0.00     0.079 A 
HETATM   10 CL   LIG     1       0.692   3.015   0.007  1.00  0.00    -0.081 Cl
ENDROOT
TORSDOF 0
