MODEL 1
REMARK VINA RESULT:      -5.2      0.000      0.000
REMARK  2 active torsions:
REMARK  status: ('A' for Active; 'I' for Inactive)
REMARK    1  A    between atoms: C_4  and  O_6 
REMARK    2  A    between atoms: C_8  and  S_9 
ROOT
HETATM    1  N   LIG     1      17.062  34.950  23.647  1.00  0.00    -0.235 NA
HETATM    2  C   LIG     1      17.592  35.010  24.895  1.00  0.00     0.130 A 
HETATM    3  C   LIG     1      17.704  36.242  25.552  1.00  0.00     0.008 A 
HETATM    4  C   LIG     1      17.246  37.388  24.885  1.00  0.00     0.172 A 
HETATM    5  N   LIG     1      16.721  37.278  23.635  1.00  0.00    -0.198 NA
HETATM    6  C   LIG     1      18.276  36.332  26.938  1.00  0.00     0.054 C 
HETATM    7  C   LIG     1      16.631  36.073  23.017  1.00  0.00     0.187 A 
ENDROOT
BRANCH   4   8
HETATM    8  O   LIG     1      17.323  38.638  25.495  1.00  0.00    -0.344 OA
HETATM    9  H   LIG     1      16.915  39.456  25.057  1.00  0.00     0.219 HD
ENDBRANCH   4   8
BRANCH   7  10
HETATM   10  S   LIG     1      15.938  35.963  21.374  1.00  0.00    -0.103 SA
HETATM   11  H   LIG     1      15.327  34.727  21.659  1.00  0.00     0.110 HD
ENDBRANCH   7  10
TORSDOF 2
ENDMDL
MODEL 2
REMARK VINA RESULT:      -5.1      1.791      1.935
REMARK  2 active torsions:
REMARK  status: ('A' for Active; 'I' for Inactive)
REMARK    1  A    between atoms: C_4  and  O_6 
REMARK    2  A    between atoms: C_8  and  S_9 
ROOT
HETATM    1  N   LIG     1      16.941  36.523  23.196  1.00  0.00    -0.235 NA
HETATM    2  C   LIG     1      17.049  35.529  24.114  1.00  0.00     0.130 A 
HETATM    3  C   LIG     1      17.703  35.764  25.330  1.00  0.00     0.008 A 
HETATM    4  C   LIG     1      18.222  37.046  25.561  1.00  0.00     0.172 A 
HETATM    5  N   LIG     1      18.089  38.011  24.611  1.00  0.00    -0.198 NA
HETATM    6  C   LIG     1      17.823  34.683  26.365  1.00  0.00     0.054 C 
HETATM    7  C   LIG     1      17.457  37.756  23.438  1.00  0.00     0.187 A 
ENDROOT
BRANCH   4   8
HETATM    8  O   LIG     1      18.872  37.340  26.757  1.00  0.00    -0.344 OA
HETATM    9  H   LIG     1      18.452  37.105  27.649  1.00  0.00     0.219 HD
ENDBRANCH   4   8
BRANCH   7  10
HETATM   10  S   LIG     1      17.300  39.044  22.211  1.00  0.00    -0.103 SA
HETATM   11  H   LIG     1      18.029  39.955  22.999  1.00  0.00     0.110 HD
ENDBRANCH   7  10
TORSDOF 2
ENDMDL
MODEL 3
REMARK VINA RESULT:      -5.1      3.835      4.753
REMARK  2 active torsions:
REMARK  status: ('A' for Active; 'I' for Inactive)
REMARK    1  A    between atoms: C_4  and  O_6 
REMARK    2  A    between atoms: C_8  and  S_9 
ROOT
HETATM    1  N   LIG     1      17.926  36.173  19.972  1.00  0.00    -0.235 NA
HETATM    2  C   LIG     1      18.880  36.944  19.391  1.00  0.00     0.130 A 
HETATM    3  C   LIG     1      19.215  38.186  19.946  1.00  0.00     0.008 A 
HETATM    4  C   LIG     1      18.544  38.589  21.109  1.00  0.00     0.172 A 
HETATM    5  N   LIG     1      17.596  37.782  21.657  1.00  0.00    -0.198 NA
HETATM    6  C   LIG     1      20.275  39.050  19.326  1.00  0.00     0.054 C 
HETATM    7  C   LIG     1      17.285  36.586  21.096  1.00  0.00     0.187 A 
ENDROOT
BRANCH   4   8
HETATM    8  O   LIG     1      18.844  39.809  21.710  1.00  0.00    -0.344 OA
HETATM    9  H   LIG     1      18.587  39.992  22.673  1.00  0.00     0.219 HD
ENDBRANCH   4   8
BRANCH   7  10
HETATM   10  S   LIG     1      16.034  35.550  21.839  1.00  0.00    -0.103 SA
HETATM   11  H   LIG     1      16.505  34.408  21.164  1.00  0.00     0.110 HD
ENDBRANCH   7  10
TORSDOF 2
ENDMDL
MODEL 4
REMARK VINA RESULT:      -4.9      3.019      3.563
REMARK  2 active torsions:
REMARK  status: ('A' for Active; 'I' for Inactive)
REMARK    1  A    between atoms: C_4  and  O_6 
REMARK    2  A    between atoms: C_8  and  S_9 
ROOT
HETATM    1  N   LIG     1      17.521  36.009  20.259  1.00  0.00    -0.235 NA
HETATM    2  C   LIG     1      18.143  37.178  20.557  1.00  0.00     0.130 A 
HETATM    3  C   LIG     1      17.679  37.970  21.616  1.00  0.00     0.008 A 
HETATM    4  C   LIG     1      16.574  37.510  22.346  1.00  0.00     0.172 A 
HETATM    5  N   LIG     1      15.984  36.332  22.010  1.00  0.00    -0.198 NA
HETATM    6  C   LIG     1      18.358  39.261  21.972  1.00  0.00     0.054 C 
HETATM    7  C   LIG     1      16.448  35.586  20.976  1.00  0.00     0.187 A 
ENDROOT
BRANCH   4   8
HETATM    8  O   LIG     1      16.076  38.252  23.415  1.00  0.00    -0.344 OA
HETATM    9  H   LIG     1      16.691  38.824  23.982  1.00  0.00     0.219 HD
ENDBRANCH   4   8
BRANCH   7  10
HETATM   10  S   LIG     1      15.650  34.043  20.559  1.00  0.00    -0.103 SA
HETATM   11  H   LIG     1      15.852  34.251  19.181  1.00  0.00     0.110 HD
ENDBRANCH   7  10
TORSDOF 2
ENDMDL
MODEL 5
REMARK VINA RESULT:      -4.9      3.540      4.592
REMARK  2 active torsions:
REMARK  status: ('A' for Active; 'I' for Inactive)
REMARK    1  A    between atoms: C_4  and  O_6 
REMARK    2  A    between atoms: C_8  and  S_9 
ROOT
HETATM    1  N   LIG     1      17.208  36.737  22.375  1.00  0.00    -0.235 NA
HETATM    2  C   LIG     1      17.582  36.558  21.082  1.00  0.00     0.130 A 
HETATM    3  C   LIG     1      18.321  37.547  20.422  1.00  0.00     0.008 A 
HETATM    4  C   LIG     1      18.662  38.703  21.139  1.00  0.00     0.172 A 
HETATM    5  N   LIG     1      18.266  38.837  22.433  1.00  0.00    -0.198 NA
HETATM    6  C   LIG     1      18.755  37.366  18.995  1.00  0.00     0.054 C 
HETATM    7  C   LIG     1      17.544  37.867  23.049  1.00  0.00     0.187 A 
ENDROOT
BRANCH   4   8
HETATM    8  O   LIG     1      19.405  39.715  20.535  1.00  0.00    -0.344 OA
HETATM    9  H   LIG     1      19.761  39.608  19.593  1.00  0.00     0.219 HD
ENDBRANCH   4   8
BRANCH   7  10
HETATM   10  S   LIG     1      17.039  38.074  24.749  1.00  0.00    -0.103 SA
HETATM   11  H   LIG     1      15.678  37.931  24.416  1.00  0.00     0.110 HD
ENDBRANCH   7  10
TORSDOF 2
ENDMDL
MODEL 6
REMARK VINA RESULT:      -4.8      4.235      5.245
REMARK  2 active torsions:
REMARK  status: ('A' for Active; 'I' for Inactive)
REMARK    1  A    between atoms: C_4  and  O_6 
REMARK    2  A    between atoms: C_8  and  S_9 
ROOT
HETATM    1  N   LIG     1      18.211  39.026  22.357  1.00  0.00    -0.235 NA
HETATM    2  C   LIG     1      19.130  39.346  21.411  1.00  0.00     0.130 A 
HETATM    3  C   LIG     1      19.303  38.520  20.292  1.00  0.00     0.008 A 
HETATM    4  C   LIG     1      18.496  37.378  20.187  1.00  0.00     0.172 A 
HETATM    5  N   LIG     1      17.587  37.099  21.160  1.00  0.00    -0.198 NA
HETATM    6  C   LIG     1      20.305  38.859  19.227  1.00  0.00     0.054 C 
HETATM    7  C   LIG     1      17.444  37.911  22.237  1.00  0.00     0.187 A 
ENDROOT
BRANCH   4   8
HETATM    8  O   LIG     1      18.617  36.527  19.091  1.00  0.00    -0.344 OA
HETATM    9  H   LIG     1      17.799  36.108  18.664  1.00  0.00     0.219 HD
ENDBRANCH   4   8
BRANCH   7  10
HETATM   10  S   LIG     1      16.243  37.517  23.499  1.00  0.00    -0.103 SA
HETATM   11  H   LIG     1      16.232  38.842  23.975  1.00  0.00     0.110 HD
ENDBRANCH   7  10
TORSDOF 2
ENDMDL
MODEL 7
REMARK VINA RESULT:      -4.8     10.358     11.293
REMARK  2 active torsions:
REMARK  status: ('A' for Active; 'I' for Inactive)
REMARK    1  A    between atoms: C_4  and  O_6 
REMARK    2  A    between atoms: C_8  and  S_9 
ROOT
HETATM    1  N   LIG     1      16.528  33.288  15.375  1.00  0.00    -0.235 NA
HETATM    2  C   LIG     1      15.513  32.609  15.968  1.00  0.00     0.130 A 
HETATM    3  C   LIG     1      14.929  31.513  15.320  1.00  0.00     0.008 A 
HETATM    4  C   LIG     1      15.433  31.146  14.063  1.00  0.00     0.172 A 
HETATM    5  N   LIG     1      16.452  31.857  13.510  1.00  0.00    -0.198 NA
HETATM    6  C   LIG     1      13.813  30.739  15.961  1.00  0.00     0.054 C 
HETATM    7  C   LIG     1      16.996  32.919  14.154  1.00  0.00     0.187 A 
ENDROOT
BRANCH   4   8
HETATM    8  O   LIG     1      14.897  30.058  13.378  1.00  0.00    -0.344 OA
HETATM    9  H   LIG     1      14.076  29.577  13.726  1.00  0.00     0.219 HD
ENDBRANCH   4   8
BRANCH   7  10
HETATM   10  S   LIG     1      18.333  33.832  13.400  1.00  0.00    -0.103 SA
HETATM   11  H   LIG     1      19.207  32.732  13.497  1.00  0.00     0.110 HD
ENDBRANCH   7  10
TORSDOF 2
ENDMDL
MODEL 8
REMARK VINA RESULT:      -4.7      3.752      4.414
REMARK  2 active torsions:
REMARK  status: ('A' for Active; 'I' for Inactive)
REMARK    1  A    between atoms: C_4  and  O_6 
REMARK    2  A    between atoms: C_8  and  S_9 
ROOT
HETATM    1  N   LIG     1      16.240  36.902  22.118  1.00  0.00    -0.235 NA
HETATM    2  C   LIG     1      17.082  37.966  22.095  1.00  0.00     0.130 A 
HETATM    3  C   LIG     1      18.131  38.011  21.167  1.00  0.00     0.008 A 
HETATM    4  C   LIG     1      18.265  36.939  20.273  1.00  0.00     0.172 A 
HETATM    5  N   LIG     1      17.395  35.895  20.334  1.00  0.00    -0.198 NA
HETATM    6  C   LIG     1      19.068  39.183  21.115  1.00  0.00     0.054 C 
HETATM    7  C   LIG     1      16.392  35.871  21.247  1.00  0.00     0.187 A 
ENDROOT
BRANCH   4   8
HETATM    8  O   LIG     1      19.282  36.936  19.321  1.00  0.00    -0.344 OA
HETATM    9  H   LIG     1      19.833  36.103  19.151  1.00  0.00     0.219 HD
ENDBRANCH   4   8
BRANCH   7  10
HETATM   10  S   LIG     1      15.267  34.485  21.302  1.00  0.00    -0.103 SA
HETATM   11  H   LIG     1      15.749  33.979  20.079  1.00  0.00     0.110 HD
ENDBRANCH   7  10
TORSDOF 2
ENDMDL
MODEL 9
REMARK VINA RESULT:      -4.7      9.375     10.224
REMARK  2 active torsions:
REMARK  status: ('A' for Active; 'I' for Inactive)
REMARK    1  A    between atoms: C_4  and  O_6 
REMARK    2  A    between atoms: C_8  and  S_9 
ROOT
HETATM    1  N   LIG     1      16.263  31.667  14.102  1.00  0.00    -0.235 NA
HETATM    2  C   LIG     1      15.222  31.028  14.694  1.00  0.00     0.130 A 
HETATM    3  C   LIG     1      14.626  31.570  15.840  1.00  0.00     0.008 A 
HETATM    4  C   LIG     1      15.130  32.781  16.335  1.00  0.00     0.172 A 
HETATM    5  N   LIG     1      16.174  33.386  15.707  1.00  0.00    -0.198 NA
HETATM    6  C   LIG     1      13.466  30.886  16.506  1.00  0.00     0.054 C 
HETATM    7  C   LIG     1      16.740  32.837  14.602  1.00  0.00     0.187 A 
ENDROOT
BRANCH   4   8
HETATM    8  O   LIG     1      14.568  33.371  17.465  1.00  0.00    -0.344 OA
HETATM    9  H   LIG     1      13.697  33.028  17.852  1.00  0.00     0.219 HD
ENDBRANCH   4   8
BRANCH   7  10
HETATM   10  S   LIG     1      18.110  33.655  13.801  1.00  0.00    -0.103 SA
HETATM   11  H   LIG     1      18.601  34.145  15.027  1.00  0.00     0.110 HD
ENDBRANCH   7  10
TORSDOF 2
ENDMDL
MODEL 10
REMARK VINA RESULT:      -4.7      1.413      1.527
REMARK  2 active torsions:
REMARK  status: ('A' for Active; 'I' for Inactive)
REMARK    1  A    between atoms: C_4  and  O_6 
REMARK    2  A    between atoms: C_8  and  S_9 
ROOT
HETATM    1  N   LIG     1      16.897  35.141  23.132  1.00  0.00    -0.235 NA
HETATM    2  C   LIG     1      17.235  35.738  24.302  1.00  0.00     0.130 A 
HETATM    3  C   LIG     1      17.134  37.129  24.435  1.00  0.00     0.008 A 
HETATM    4  C   LIG     1      16.668  37.863  23.335  1.00  0.00     0.172 A 
HETATM    5  N   LIG     1      16.341  37.220  22.182  1.00  0.00    -0.198 NA
HETATM    6  C   LIG     1      17.491  37.812  25.725  1.00  0.00     0.054 C 
HETATM    7  C   LIG     1      16.454  35.872  22.076  1.00  0.00     0.187 A 
ENDROOT
BRANCH   4   8
HETATM    8  O   LIG     1      16.537  39.248  23.415  1.00  0.00    -0.344 OA
HETATM    9  H   LIG     1      16.524  39.719  24.312  1.00  0.00     0.219 HD
ENDBRANCH   4   8
BRANCH   7  10
HETATM   10  S   LIG     1      16.017  35.057  20.549  1.00  0.00    -0.103 SA
HETATM   11  H   LIG     1      16.958  34.032  20.766  1.00  0.00     0.110 HD
ENDBRANCH   7  10
TORSDOF 2
ENDMDL
MODEL 11
REMARK VINA RESULT:      -4.7      1.702      2.340
REMARK  2 active torsions:
REMARK  status: ('A' for Active; 'I' for Inactive)
REMARK    1  A    between atoms: C_4  and  O_6 
REMARK    2  A    between atoms: C_8  and  S_9 
ROOT
HETATM    1  N   LIG     1      16.473  37.237  22.245  1.00  0.00    -0.235 NA
HETATM    2  C   LIG     1      16.809  37.809  23.429  1.00  0.00     0.130 A 
HETATM    3  C   LIG     1      17.188  37.007  24.514  1.00  0.00     0.008 A 
HETATM    4  C   LIG     1      17.214  35.618  24.327  1.00  0.00     0.172 A 
HETATM    5  N   LIG     1      16.869  35.090  23.122  1.00  0.00    -0.198 NA
HETATM    6  C   LIG     1      17.576  37.618  25.830  1.00  0.00     0.054 C 
HETATM    7  C   LIG     1      16.499  35.888  22.089  1.00  0.00     0.187 A 
ENDROOT
BRANCH   4   8
HETATM    8  O   LIG     1      17.593  34.773  25.368  1.00  0.00    -0.344 OA
HETATM    9  H   LIG     1      18.112  33.922  25.185  1.00  0.00     0.219 HD
ENDBRANCH   4   8
BRANCH   7  10
HETATM   10  S   LIG     1      16.051  35.165  20.519  1.00  0.00    -0.103 SA
HETATM   11  H   LIG     1      17.028  35.913  19.836  1.00  0.00     0.110 HD
ENDBRANCH   7  10
TORSDOF 2
ENDMDL
MODEL 12
REMARK VINA RESULT:      -4.6      2.442      3.489
REMARK  2 active torsions:
REMARK  status: ('A' for Active; 'I' for Inactive)
REMARK    1  A    between atoms: C_4  and  O_6 
REMARK    2  A    between atoms: C_8  and  S_9 
ROOT
HETATM    1  N   LIG     1      17.468  35.251  24.280  1.00  0.00    -0.235 NA
HETATM    2  C   LIG     1      16.821  35.118  23.095  1.00  0.00     0.130 A 
HETATM    3  C   LIG     1      16.083  36.190  22.574  1.00  0.00     0.008 A 
HETATM    4  C   LIG     1      16.050  37.384  23.308  1.00  0.00     0.172 A 
HETATM    5  N   LIG     1      16.716  37.470  24.491  1.00  0.00    -0.198 NA
HETATM    6  C   LIG     1      15.368  36.070  21.259  1.00  0.00     0.054 C 
HETATM    7  C   LIG     1      17.418  36.416  24.977  1.00  0.00     0.187 A 
ENDROOT
BRANCH   4   8
HETATM    8  O   LIG     1      15.342  38.485  22.832  1.00  0.00    -0.344 OA
HETATM    9  H   LIG     1      15.178  38.610  21.840  1.00  0.00     0.219 HD
ENDBRANCH   4   8
BRANCH   7  10
HETATM   10  S   LIG     1      18.280  36.560  26.535  1.00  0.00    -0.103 SA
HETATM   11  H   LIG     1      19.537  36.550  25.899  1.00  0.00     0.110 HD
ENDBRANCH   7  10
TORSDOF 2
ENDMDL
MODEL 13
REMARK VINA RESULT:      -4.6      2.793      3.716
REMARK  2 active torsions:
REMARK  status: ('A' for Active; 'I' for Inactive)
REMARK    1  A    between atoms: C_4  and  O_6 
REMARK    2  A    between atoms: C_8  and  S_9 
ROOT
HETATM    1  N   LIG     1      17.628  37.387  25.450  1.00  0.00    -0.235 NA
HETATM    2  C   LIG     1      17.472  38.384  24.542  1.00  0.00     0.130 A 
HETATM    3  C   LIG     1      17.139  38.081  23.216  1.00  0.00     0.008 A 
HETATM    4  C   LIG     1      16.967  36.732  22.873  1.00  0.00     0.172 A 
HETATM    5  N   LIG     1      17.133  35.767  23.817  1.00  0.00    -0.198 NA
HETATM    6  C   LIG     1      16.950  39.168  22.197  1.00  0.00     0.054 C 
HETATM    7  C   LIG     1      17.463  36.087  25.094  1.00  0.00     0.187 A 
ENDROOT
BRANCH   4   8
HETATM    8  O   LIG     1      16.625  36.373  21.571  1.00  0.00    -0.344 OA
HETATM    9  H   LIG     1      17.134  36.744  20.778  1.00  0.00     0.219 HD
ENDBRANCH   4   8
BRANCH   7  10
HETATM   10  S   LIG     1      17.675  34.796  26.310  1.00  0.00    -0.103 SA
HETATM   11  H   LIG     1      18.182  35.704  27.260  1.00  0.00     0.110 HD
ENDBRANCH   7  10
TORSDOF 2
ENDMDL
MODEL 14
REMARK VINA RESULT:      -4.5      9.508     10.373
REMARK  2 active torsions:
REMARK  status: ('A' for Active; 'I' for Inactive)
REMARK    1  A    between atoms: C_4  and  O_6 
REMARK    2  A    between atoms: C_8  and  S_9 
ROOT
HETATM    1  N   LIG     1      16.060  31.416  14.572  1.00  0.00    -0.235 NA
HETATM    2  C   LIG     1      16.083  32.576  15.276  1.00  0.00     0.130 A 
HETATM    3  C   LIG     1      15.123  32.815  16.267  1.00  0.00     0.008 A 
HETATM    4  C   LIG     1      14.161  31.822  16.505  1.00  0.00     0.172 A 
HETATM    5  N   LIG     1      14.179  30.675  15.775  1.00  0.00    -0.198 NA
HETATM    6  C   LIG     1      15.135  34.086  17.067  1.00  0.00     0.054 C 
HETATM    7  C   LIG     1      15.116  30.470  14.815  1.00  0.00     0.187 A 
ENDROOT
BRANCH   4   8
HETATM    8  O   LIG     1      13.189  32.002  17.487  1.00  0.00    -0.344 OA
HETATM    9  H   LIG     1      12.412  31.357  17.574  1.00  0.00     0.219 HD
ENDBRANCH   4   8
BRANCH   7  10
HETATM   10  S   LIG     1      15.111  28.953  13.872  1.00  0.00    -0.103 SA
HETATM   11  H   LIG     1      16.474  28.721  14.141  1.00  0.00     0.110 HD
ENDBRANCH   7  10
TORSDOF 2
ENDMDL
MODEL 15
REMARK VINA RESULT:      -4.4      6.141      7.531
REMARK  2 active torsions:
REMARK  status: ('A' for Active; 'I' for Inactive)
REMARK    1  A    between atoms: C_4  and  O_6 
REMARK    2  A    between atoms: C_8  and  S_9 
ROOT
HETATM    1  N   LIG     1      15.285  32.741  20.132  1.00  0.00    -0.235 NA
HETATM    2  C   LIG     1      14.899  32.027  19.044  1.00  0.00     0.130 A 
HETATM    3  C   LIG     1      14.880  32.631  17.779  1.00  0.00     0.008 A 
HETATM    4  C   LIG     1      15.278  33.972  17.684  1.00  0.00     0.172 A 
HETATM    5  N   LIG     1      15.658  34.646  18.803  1.00  0.00    -0.198 NA
HETATM    6  C   LIG     1      14.468  31.859  16.559  1.00  0.00     0.054 C 
HETATM    7  C   LIG     1      15.661  34.041  20.018  1.00  0.00     0.187 A 
ENDROOT
BRANCH   4   8
HETATM    8  O   LIG     1      15.290  34.619  16.451  1.00  0.00    -0.344 OA
HETATM    9  H   LIG     1      14.662  34.336  15.708  1.00  0.00     0.219 HD
ENDBRANCH   4   8
BRANCH   7  10
HETATM   10  S   LIG     1      16.164  34.953  21.468  1.00  0.00    -0.103 SA
HETATM   11  H   LIG     1      17.374  35.347  20.864  1.00  0.00     0.110 HD
ENDBRANCH   7  10
TORSDOF 2
ENDMDL
MODEL 16
REMARK VINA RESULT:      -4.4      8.177      9.568
REMARK  2 active torsions:
REMARK  status: ('A' for Active; 'I' for Inactive)
REMARK    1  A    between atoms: C_4  and  O_6 
REMARK    2  A    between atoms: C_8  and  S_9 
ROOT
HETATM    1  N   LIG     1      14.143  31.467  18.370  1.00  0.00    -0.235 NA
HETATM    2  C   LIG     1      13.846  30.862  17.192  1.00  0.00     0.130 A 
HETATM    3  C   LIG     1      14.449  31.301  16.006  1.00  0.00     0.008 A 
HETATM    4  C   LIG     1      15.361  32.363  16.085  1.00  0.00     0.172 A 
HETATM    5  N   LIG     1      15.628  32.937  17.289  1.00  0.00    -0.198 NA
HETATM    6  C   LIG     1      14.145  30.639  14.692  1.00  0.00     0.054 C 
HETATM    7  C   LIG     1      15.025  32.499  18.423  1.00  0.00     0.187 A 
ENDROOT
BRANCH   4   8
HETATM    8  O   LIG     1      15.999  32.833  14.939  1.00  0.00    -0.344 OA
HETATM    9  H   LIG     1      15.464  33.137  14.134  1.00  0.00     0.219 HD
ENDBRANCH   4   8
BRANCH   7  10
HETATM   10  S   LIG     1      15.395  33.275  19.988  1.00  0.00    -0.103 SA
HETATM   11  H   LIG     1      15.565  34.535  19.381  1.00  0.00     0.110 HD
ENDBRANCH   7  10
TORSDOF 2
ENDMDL
MODEL 17
REMARK VINA RESULT:      -4.4      3.956      4.566
REMARK  2 active torsions:
REMARK  status: ('A' for Active; 'I' for Inactive)
REMARK    1  A    between atoms: C_4  and  O_6 
REMARK    2  A    between atoms: C_8  and  S_9 
ROOT
HETATM    1  N   LIG     1      18.680  39.348  21.472  1.00  0.00    -0.235 NA
HETATM    2  C   LIG     1      17.674  39.096  22.347  1.00  0.00     0.130 A 
HETATM    3  C   LIG     1      16.964  37.891  22.273  1.00  0.00     0.008 A 
HETATM    4  C   LIG     1      17.334  36.969  21.283  1.00  0.00     0.172 A 
HETATM    5  N   LIG     1      18.350  37.265  20.429  1.00  0.00    -0.198 NA
HETATM    6  C   LIG     1      15.854  37.586  23.238  1.00  0.00     0.054 C 
HETATM    7  C   LIG     1      19.018  38.443  20.517  1.00  0.00     0.187 A 
ENDROOT
BRANCH   4   8
HETATM    8  O   LIG     1      16.670  35.750  21.170  1.00  0.00    -0.344 OA
HETATM    9  H   LIG     1      17.118  34.885  21.448  1.00  0.00     0.219 HD
ENDBRANCH   4   8
BRANCH   7  10
HETATM   10  S   LIG     1      20.347  38.802  19.379  1.00  0.00    -0.103 SA
HETATM   11  H   LIG     1      20.572  37.435  19.129  1.00  0.00     0.110 HD
ENDBRANCH   7  10
TORSDOF 2
ENDMDL
MODEL 18
REMARK VINA RESULT:      -4.4      3.780      4.182
REMARK  2 active torsions:
REMARK  status: ('A' for Active; 'I' for Inactive)
REMARK    1  A    between atoms: C_4  and  O_6 
REMARK    2  A    between atoms: C_8  and  S_9 
ROOT
HETATM    1  N   LIG     1      18.600  36.909  20.034  1.00  0.00    -0.235 NA
HETATM    2  C   LIG     1      17.594  36.340  20.745  1.00  0.00     0.130 A 
HETATM    3  C   LIG     1      16.932  37.074  21.737  1.00  0.00     0.008 A 
HETATM    4  C   LIG     1      17.337  38.399  21.956  1.00  0.00     0.172 A 
HETATM    5  N   LIG     1      18.350  38.927  21.218  1.00  0.00    -0.198 NA
HETATM    6  C   LIG     1      15.808  36.469  22.528  1.00  0.00     0.054 C 
HETATM    7  C   LIG     1      18.981  38.192  20.267  1.00  0.00     0.187 A 
ENDROOT
BRANCH   4   8
HETATM    8  O   LIG     1      16.707  39.179  22.922  1.00  0.00    -0.344 OA
HETATM    9  H   LIG     1      17.223  39.877  23.445  1.00  0.00     0.219 HD
ENDBRANCH   4   8
BRANCH   7  10
HETATM   10  S   LIG     1      20.309  38.914  19.316  1.00  0.00    -0.103 SA
HETATM   11  H   LIG     1      19.420  39.371  18.325  1.00  0.00     0.110 HD
ENDBRANCH   7  10
TORSDOF 2
ENDMDL
MODEL 19
REMARK VINA RESULT:      -4.3      6.777      7.705
REMARK  2 active torsions:
REMARK  status: ('A' for Active; 'I' for Inactive)
REMARK    1  A    between atoms: C_4  and  O_6 
REMARK    2  A    between atoms: C_8  and  S_9 
ROOT
HETATM    1  N   LIG     1      14.119  31.083  18.578  1.00  0.00    -0.235 NA
HETATM    2  C   LIG     1      14.695  31.758  19.605  1.00  0.00     0.130 A 
HETATM    3  C   LIG     1      15.250  33.026  19.387  1.00  0.00     0.008 A 
HETATM    4  C   LIG     1      15.180  33.562  18.094  1.00  0.00     0.172 A 
HETATM    5  N   LIG     1      14.592  32.848  17.097  1.00  0.00    -0.198 NA
HETATM    6  C   LIG     1      15.882  33.797  20.511  1.00  0.00     0.054 C 
HETATM    7  C   LIG     1      14.067  31.619  17.331  1.00  0.00     0.187 A 
ENDROOT
BRANCH   4   8
HETATM    8  O   LIG     1      15.706  34.823  17.823  1.00  0.00    -0.344 OA
HETATM    9  H   LIG     1      15.179  35.503  17.287  1.00  0.00     0.219 HD
ENDBRANCH   4   8
BRANCH   7  10
HETATM   10  S   LIG     1      13.303  30.706  16.000  1.00  0.00    -0.103 SA
HETATM   11  H   LIG     1      14.371  29.790  15.946  1.00  0.00     0.110 HD
ENDBRANCH   7  10
TORSDOF 2
ENDMDL
MODEL 20
REMARK VINA RESULT:      -4.3     10.774     11.831
REMARK  2 active torsions:
REMARK  status: ('A' for Active; 'I' for Inactive)
REMARK    1  A    between atoms: C_4  and  O_6 
REMARK    2  A    between atoms: C_8  and  S_9 
ROOT
HETATM    1  N   LIG     1      15.960  30.854  13.853  1.00  0.00    -0.235 NA
HETATM    2  C   LIG     1      15.086  29.847  13.600  1.00  0.00     0.130 A 
HETATM    3  C   LIG     1      13.972  29.660  14.428  1.00  0.00     0.008 A 
HETATM    4  C   LIG     1      13.795  30.543  15.502  1.00  0.00     0.172 A 
HETATM    5  N   LIG     1      14.697  31.538  15.716  1.00  0.00    -0.198 NA
HETATM    6  C   LIG     1      12.986  28.560  14.161  1.00  0.00     0.054 C 
HETATM    7  C   LIG     1      15.772  31.695  14.903  1.00  0.00     0.187 A 
ENDROOT
BRANCH   4   8
HETATM    8  O   LIG     1      12.699  30.410  16.352  1.00  0.00    -0.344 OA
HETATM    9  H   LIG     1      12.104  31.203  16.562  1.00  0.00     0.219 HD
ENDBRANCH   4   8
BRANCH   7  10
HETATM   10  S   LIG     1      16.940  33.011  15.211  1.00  0.00    -0.103 SA
HETATM   11  H   LIG     1      16.535  33.125  16.555  1.00  0.00     0.110 HD
ENDBRANCH   7  10
TORSDOF 2
ENDMDL
