REMARK  2 active torsions:
REMARK  status: ('A' for Active; 'I' for Inactive)
REMARK    1  A    between atoms: C_4  and  O_6 
REMARK    2  A    between atoms: C_8  and  S_9 
ROOT
HETATM    1  N   LIG     1       1.580  -1.053  -0.433  1.00  0.00    -0.235 NA
HETATM    2  C   LIG     1       0.314  -1.404  -0.092  1.00  0.00     0.130 A 
HETATM    3  C   LIG     1      -0.660  -0.416   0.103  1.00  0.00     0.008 A 
HETATM    4  C   LIG     1      -0.284   0.923  -0.075  1.00  0.00     0.172 A 
HETATM    5  N   LIG     1       0.997   1.226  -0.418  1.00  0.00    -0.198 NA
HETATM    6  C   LIG     1      -2.070  -0.781   0.469  1.00  0.00     0.054 C 
HETATM    7  C   LIG     1       1.924   0.251  -0.594  1.00  0.00     0.187 A 
ENDROOT
BRANCH   4   8
HETATM    8  O   LIG     1      -1.214   1.946   0.095  1.00  0.00    -0.344 OA
HETATM    9  H   LIG     1      -0.950   2.916  -0.032  1.00  0.00     0.219 HD
ENDBRANCH   4   8
BRANCH   7  10
HETATM   10  S   LIG     1       3.598   0.682  -1.043  1.00  0.00    -0.103 SA
HETATM   11  H   LIG     1       3.991   0.774   0.306  1.00  0.00     0.110 HD
ENDBRANCH   7  10
TORSDOF 2
