MODEL 1
REMARK VINA RESULT:      -5.1      0.000      0.000
REMARK  5 active torsions:
REMARK  status: ('A' for Active; 'I' for Inactive)
REMARK       I    between atoms: N_1  and  C_2 
REMARK    1  A    between atoms: C_2  and  O_3 
REMARK    2  A    between atoms: O_3  and  C_4 
REMARK    3  A    between atoms: C_4  and  C_5 
REMARK    4  A    between atoms: C_5  and  C_6 
REMARK    5  A    between atoms: C_6  and  C_7 
ROOT
HETATM    1  O   LIG     1      16.349  38.235  23.620  1.00  0.00    -0.304 OA
ENDROOT
BRANCH   1   2
HETATM    2  C   LIG     1      17.018  37.594  24.666  1.00  0.00     0.358 C 
HETATM    3  N   LIG     1      17.486  38.358  25.772  1.00  0.00    -0.346 N 
HETATM    4  H   LIG     1      17.988  37.896  26.562  1.00  0.00     0.161 HD
HETATM    5  H   LIG     1      17.327  39.390  25.803  1.00  0.00     0.161 HD
HETATM    6  O   LIG     1      17.210  36.348  24.640  1.00  0.00    -0.239 OA
ENDBRANCH   1   2
BRANCH   1   7
HETATM    7  C   LIG     1      17.001  39.122  22.717  1.00  0.00     0.180 C 
BRANCH   7   8
HETATM    8  C   LIG     1      17.843  38.330  21.712  1.00  0.00     0.027 C 
BRANCH   8   9
HETATM    9  C   LIG     1      18.657  39.218  20.752  1.00  0.00     0.002 C 
BRANCH   9  10
HETATM   10  C   LIG     1      19.580  38.456  19.785  1.00  0.00    -0.004 C 
HETATM   11  C   LIG     1      19.117  37.025  19.518  1.00  0.00     0.005 C 
ENDBRANCH   9  10
ENDBRANCH   8   9
ENDBRANCH   7   8
ENDBRANCH   1   7
TORSDOF 5
ENDMDL
MODEL 2
REMARK VINA RESULT:      -5.0      3.559      5.158
REMARK  5 active torsions:
REMARK  status: ('A' for Active; 'I' for Inactive)
REMARK       I    between atoms: N_1  and  C_2 
REMARK    1  A    between atoms: C_2  and  O_3 
REMARK    2  A    between atoms: O_3  and  C_4 
REMARK    3  A    between atoms: C_4  and  C_5 
REMARK    4  A    between atoms: C_5  and  C_6 
REMARK    5  A    between atoms: C_6  and  C_7 
ROOT
HETATM    1  O   LIG     1      16.794  36.208  21.907  1.00  0.00    -0.304 OA
ENDROOT
BRANCH   1   2
HETATM    2  C   LIG     1      15.883  35.582  21.052  1.00  0.00     0.358 C 
HETATM    3  N   LIG     1      14.486  35.739  21.278  1.00  0.00    -0.346 N 
HETATM    4  H   LIG     1      13.791  35.277  20.650  1.00  0.00     0.161 HD
HETATM    5  H   LIG     1      14.146  36.322  22.075  1.00  0.00     0.161 HD
HETATM    6  O   LIG     1      16.286  34.880  20.085  1.00  0.00    -0.239 OA
ENDBRANCH   1   2
BRANCH   1   7
HETATM    7  C   LIG     1      16.389  37.055  22.977  1.00  0.00     0.180 C 
BRANCH   7   8
HETATM    8  C   LIG     1      17.204  36.742  24.237  1.00  0.00     0.027 C 
BRANCH   8   9
HETATM    9  C   LIG     1      17.234  35.244  24.596  1.00  0.00     0.002 C 
BRANCH   9  10
HETATM   10  C   LIG     1      17.863  34.914  25.961  1.00  0.00    -0.004 C 
HETATM   11  C   LIG     1      18.265  36.159  26.750  1.00  0.00     0.005 C 
ENDBRANCH   9  10
ENDBRANCH   8   9
ENDBRANCH   7   8
ENDBRANCH   1   7
TORSDOF 5
ENDMDL
MODEL 3
REMARK VINA RESULT:      -5.0      1.917      2.233
REMARK  5 active torsions:
REMARK  status: ('A' for Active; 'I' for Inactive)
REMARK       I    between atoms: N_1  and  C_2 
REMARK    1  A    between atoms: C_2  and  O_3 
REMARK    2  A    between atoms: O_3  and  C_4 
REMARK    3  A    between atoms: C_4  and  C_5 
REMARK    4  A    between atoms: C_5  and  C_6 
REMARK    5  A    between atoms: C_6  and  C_7 
ROOT
HETATM    1  O   LIG     1      17.087  36.747  23.060  1.00  0.00    -0.304 OA
ENDROOT
BRANCH   1   2
HETATM    2  C   LIG     1      16.324  37.684  23.762  1.00  0.00     0.358 C 
HETATM    3  N   LIG     1      15.213  38.304  23.124  1.00  0.00    -0.346 N 
HETATM    4  H   LIG     1      14.632  39.007  23.634  1.00  0.00     0.161 HD
HETATM    5  H   LIG     1      14.968  38.058  22.139  1.00  0.00     0.161 HD
HETATM    6  O   LIG     1      16.610  37.984  24.953  1.00  0.00    -0.239 OA
ENDBRANCH   1   2
BRANCH   1   7
HETATM    7  C   LIG     1      16.571  35.998  21.965  1.00  0.00     0.180 C 
BRANCH   7   8
HETATM    8  C   LIG     1      17.544  36.051  20.782  1.00  0.00     0.027 C 
BRANCH   8   9
HETATM    9  C   LIG     1      18.269  37.402  20.638  1.00  0.00     0.002 C 
BRANCH   9  10
HETATM   10  C   LIG     1      19.248  37.493  19.455  1.00  0.00    -0.004 C 
HETATM   11  C   LIG     1      20.219  38.668  19.572  1.00  0.00     0.005 C 
ENDBRANCH   9  10
ENDBRANCH   8   9
ENDBRANCH   7   8
ENDBRANCH   1   7
TORSDOF 5
ENDMDL
MODEL 4
REMARK VINA RESULT:      -5.0      2.837      4.631
REMARK  5 active torsions:
REMARK  status: ('A' for Active; 'I' for Inactive)
REMARK       I    between atoms: N_1  and  C_2 
REMARK    1  A    between atoms: C_2  and  O_3 
REMARK    2  A    between atoms: O_3  and  C_4 
REMARK    3  A    between atoms: C_4  and  C_5 
REMARK    4  A    between atoms: C_5  and  C_6 
REMARK    5  A    between atoms: C_6  and  C_7 
ROOT
HETATM    1  O   LIG     1      16.496  37.589  22.897  1.00  0.00    -0.304 OA
ENDROOT
BRANCH   1   2
HETATM    2  C   LIG     1      16.955  36.526  22.116  1.00  0.00     0.358 C 
HETATM    3  N   LIG     1      16.801  35.191  22.588  1.00  0.00    -0.346 N 
HETATM    4  H   LIG     1      17.139  34.384  22.018  1.00  0.00     0.161 HD
HETATM    5  H   LIG     1      16.345  35.010  23.510  1.00  0.00     0.161 HD
HETATM    6  O   LIG     1      17.502  36.735  20.999  1.00  0.00    -0.239 OA
ENDBRANCH   1   2
BRANCH   1   7
HETATM    7  C   LIG     1      17.346  38.329  23.767  1.00  0.00     0.180 C 
BRANCH   7   8
HETATM    8  C   LIG     1      17.217  37.808  25.202  1.00  0.00     0.027 C 
BRANCH   8   9
HETATM    9  C   LIG     1      18.518  37.197  25.757  1.00  0.00     0.002 C 
BRANCH   9  10
HETATM   10  C   LIG     1      18.322  36.030  26.740  1.00  0.00    -0.004 C 
HETATM   11  C   LIG     1      17.613  34.832  26.112  1.00  0.00     0.005 C 
ENDBRANCH   9  10
ENDBRANCH   8   9
ENDBRANCH   7   8
ENDBRANCH   1   7
TORSDOF 5
ENDMDL
MODEL 5
REMARK VINA RESULT:      -4.9      2.607      4.567
REMARK  5 active torsions:
REMARK  status: ('A' for Active; 'I' for Inactive)
REMARK       I    between atoms: N_1  and  C_2 
REMARK    1  A    between atoms: C_2  and  O_3 
REMARK    2  A    between atoms: O_3  and  C_4 
REMARK    3  A    between atoms: C_4  and  C_5 
REMARK    4  A    between atoms: C_5  and  C_6 
REMARK    5  A    between atoms: C_6  and  C_7 
ROOT
HETATM    1  O   LIG     1      17.543  37.517  21.633  1.00  0.00    -0.304 OA
ENDROOT
BRANCH   1   2
HETATM    2  C   LIG     1      17.588  38.820  22.135  1.00  0.00     0.358 C 
HETATM    3  N   LIG     1      18.674  39.671  21.784  1.00  0.00    -0.346 N 
HETATM    4  H   LIG     1      18.724  40.647  22.151  1.00  0.00     0.161 HD
HETATM    5  H   LIG     1      19.430  39.323  21.153  1.00  0.00     0.161 HD
HETATM    6  O   LIG     1      16.676  39.250  22.895  1.00  0.00    -0.239 OA
ENDBRANCH   1   2
BRANCH   1   7
HETATM    7  C   LIG     1      16.472  36.621  21.912  1.00  0.00     0.180 C 
BRANCH   7   8
HETATM    8  C   LIG     1      16.949  35.500  22.842  1.00  0.00     0.027 C 
BRANCH   8   9
HETATM    9  C   LIG     1      17.225  35.969  24.283  1.00  0.00     0.002 C 
BRANCH   9  10
HETATM   10  C   LIG     1      17.417  34.840  25.311  1.00  0.00    -0.004 C 
HETATM   11  C   LIG     1      18.329  35.237  26.471  1.00  0.00     0.005 C 
ENDBRANCH   9  10
ENDBRANCH   8   9
ENDBRANCH   7   8
ENDBRANCH   1   7
TORSDOF 5
ENDMDL
MODEL 6
REMARK VINA RESULT:      -4.8      1.984      2.613
REMARK  5 active torsions:
REMARK  status: ('A' for Active; 'I' for Inactive)
REMARK       I    between atoms: N_1  and  C_2 
REMARK    1  A    between atoms: C_2  and  O_3 
REMARK    2  A    between atoms: O_3  and  C_4 
REMARK    3  A    between atoms: C_4  and  C_5 
REMARK    4  A    between atoms: C_5  and  C_6 
REMARK    5  A    between atoms: C_6  and  C_7 
ROOT
HETATM    1  O   LIG     1      18.088  38.544  23.259  1.00  0.00    -0.304 OA
ENDROOT
BRANCH   1   2
HETATM    2  C   LIG     1      17.583  38.079  24.475  1.00  0.00     0.358 C 
HETATM    3  N   LIG     1      18.483  37.696  25.509  1.00  0.00    -0.346 N 
HETATM    4  H   LIG     1      18.123  37.346  26.425  1.00  0.00     0.161 HD
HETATM    5  H   LIG     1      19.514  37.765  25.360  1.00  0.00     0.161 HD
HETATM    6  O   LIG     1      16.338  37.997  24.666  1.00  0.00    -0.239 OA
ENDBRANCH   1   2
BRANCH   1   7
HETATM    7  C   LIG     1      17.351  38.479  22.042  1.00  0.00     0.180 C 
BRANCH   7   8
HETATM    8  C   LIG     1      18.136  37.690  20.989  1.00  0.00     0.027 C 
BRANCH   8   9
HETATM    9  C   LIG     1      17.577  36.278  20.731  1.00  0.00     0.002 C 
BRANCH   9  10
HETATM   10  C   LIG     1      16.567  35.776  21.779  1.00  0.00    -0.004 C 
HETATM   11  C   LIG     1      15.162  35.584  21.210  1.00  0.00     0.005 C 
ENDBRANCH   9  10
ENDBRANCH   8   9
ENDBRANCH   7   8
ENDBRANCH   1   7
TORSDOF 5
ENDMDL
MODEL 7
REMARK VINA RESULT:      -4.7      8.002      8.905
REMARK  5 active torsions:
REMARK  status: ('A' for Active; 'I' for Inactive)
REMARK       I    between atoms: N_1  and  C_2 
REMARK    1  A    between atoms: C_2  and  O_3 
REMARK    2  A    between atoms: O_3  and  C_4 
REMARK    3  A    between atoms: C_4  and  C_5 
REMARK    4  A    between atoms: C_5  and  C_6 
REMARK    5  A    between atoms: C_6  and  C_7 
ROOT
HETATM    1  O   LIG     1      15.561  32.328  18.346  1.00  0.00    -0.304 OA
ENDROOT
BRANCH   1   2
HETATM    2  C   LIG     1      14.989  32.126  19.605  1.00  0.00     0.358 C 
HETATM    3  N   LIG     1      14.772  33.240  20.464  1.00  0.00    -0.346 N 
HETATM    4  H   LIG     1      14.346  33.108  21.408  1.00  0.00     0.161 HD
HETATM    5  H   LIG     1      15.036  34.202  20.153  1.00  0.00     0.161 HD
HETATM    6  O   LIG     1      14.663  30.968  19.986  1.00  0.00    -0.239 OA
ENDBRANCH   1   2
BRANCH   1   7
HETATM    7  C   LIG     1      14.829  32.853  17.243  1.00  0.00     0.180 C 
BRANCH   7   8
HETATM    8  C   LIG     1      13.535  32.057  17.039  1.00  0.00     0.027 C 
BRANCH   8   9
HETATM    9  C   LIG     1      13.706  30.821  16.137  1.00  0.00     0.002 C 
BRANCH   9  10
HETATM   10  C   LIG     1      14.792  30.950  15.054  1.00  0.00    -0.004 C 
HETATM   11  C   LIG     1      14.860  29.736  14.128  1.00  0.00     0.005 C 
ENDBRANCH   9  10
ENDBRANCH   8   9
ENDBRANCH   7   8
ENDBRANCH   1   7
TORSDOF 5
ENDMDL
MODEL 8
REMARK VINA RESULT:      -4.6      8.670      9.728
REMARK  5 active torsions:
REMARK  status: ('A' for Active; 'I' for Inactive)
REMARK       I    between atoms: N_1  and  C_2 
REMARK    1  A    between atoms: C_2  and  O_3 
REMARK    2  A    between atoms: O_3  and  C_4 
REMARK    3  A    between atoms: C_4  and  C_5 
REMARK    4  A    between atoms: C_5  and  C_6 
REMARK    5  A    between atoms: C_6  and  C_7 
ROOT
HETATM    1  O   LIG     1      14.480  33.107  16.488  1.00  0.00    -0.304 OA
ENDROOT
BRANCH   1   2
HETATM    2  C   LIG     1      15.313  34.076  17.052  1.00  0.00     0.358 C 
HETATM    3  N   LIG     1      15.300  34.279  18.461  1.00  0.00    -0.346 N 
HETATM    4  H   LIG     1      15.916  35.000  18.899  1.00  0.00     0.161 HD
HETATM    5  H   LIG     1      14.674  33.705  19.068  1.00  0.00     0.161 HD
HETATM    6  O   LIG     1      16.076  34.771  16.326  1.00  0.00    -0.239 OA
ENDBRANCH   1   2
BRANCH   1   7
HETATM    7  C   LIG     1      14.073  31.937  17.190  1.00  0.00     0.180 C 
BRANCH   7   8
HETATM    8  C   LIG     1      12.891  31.274  16.474  1.00  0.00     0.027 C 
BRANCH   8   9
HETATM    9  C   LIG     1      13.311  30.186  15.468  1.00  0.00     0.002 C 
BRANCH   9  10
HETATM   10  C   LIG     1      14.536  30.534  14.605  1.00  0.00    -0.004 C 
HETATM   11  C   LIG     1      15.250  29.299  14.057  1.00  0.00     0.005 C 
ENDBRANCH   9  10
ENDBRANCH   8   9
ENDBRANCH   7   8
ENDBRANCH   1   7
TORSDOF 5
ENDMDL
MODEL 9
REMARK VINA RESULT:      -4.5      8.632      9.635
REMARK  5 active torsions:
REMARK  status: ('A' for Active; 'I' for Inactive)
REMARK       I    between atoms: N_1  and  C_2 
REMARK    1  A    between atoms: C_2  and  O_3 
REMARK    2  A    between atoms: O_3  and  C_4 
REMARK    3  A    between atoms: C_4  and  C_5 
REMARK    4  A    between atoms: C_5  and  C_6 
REMARK    5  A    between atoms: C_6  and  C_7 
ROOT
HETATM    1  O   LIG     1      13.855  31.017  17.864  1.00  0.00    -0.304 OA
ENDROOT
BRANCH   1   2
HETATM    2  C   LIG     1      14.543  31.734  18.846  1.00  0.00     0.358 C 
HETATM    3  N   LIG     1      15.176  32.963  18.505  1.00  0.00    -0.346 N 
HETATM    4  H   LIG     1      15.694  33.511  19.226  1.00  0.00     0.161 HD
HETATM    5  H   LIG     1      15.123  33.327  17.527  1.00  0.00     0.161 HD
HETATM    6  O   LIG     1      14.608  31.304  20.030  1.00  0.00    -0.239 OA
ENDBRANCH   1   2
BRANCH   1   7
HETATM    7  C   LIG     1      13.561  31.557  16.580  1.00  0.00     0.180 C 
BRANCH   7   8
HETATM    8  C   LIG     1      13.320  30.427  15.573  1.00  0.00     0.027 C 
BRANCH   8   9
HETATM    9  C   LIG     1      14.431  30.295  14.515  1.00  0.00     0.002 C 
BRANCH   9  10
HETATM   10  C   LIG     1      15.642  31.221  14.722  1.00  0.00    -0.004 C 
HETATM   11  C   LIG     1      16.045  31.970  13.453  1.00  0.00     0.005 C 
ENDBRANCH   9  10
ENDBRANCH   8   9
ENDBRANCH   7   8
ENDBRANCH   1   7
TORSDOF 5
ENDMDL
MODEL 10
REMARK VINA RESULT:      -4.5      8.746     10.097
REMARK  5 active torsions:
REMARK  status: ('A' for Active; 'I' for Inactive)
REMARK       I    between atoms: N_1  and  C_2 
REMARK    1  A    between atoms: C_2  and  O_3 
REMARK    2  A    between atoms: O_3  and  C_4 
REMARK    3  A    between atoms: C_4  and  C_5 
REMARK    4  A    between atoms: C_5  and  C_6 
REMARK    5  A    between atoms: C_6  and  C_7 
ROOT
HETATM    1  O   LIG     1      16.204  32.451  16.419  1.00  0.00    -0.304 OA
ENDROOT
BRANCH   1   2
HETATM    2  C   LIG     1      15.429  33.598  16.608  1.00  0.00     0.358 C 
HETATM    3  N   LIG     1      14.090  33.471  17.076  1.00  0.00    -0.346 N 
HETATM    4  H   LIG     1      13.497  34.318  17.223  1.00  0.00     0.161 HD
HETATM    5  H   LIG     1      13.692  32.528  17.280  1.00  0.00     0.161 HD
HETATM    6  O   LIG     1      15.903  34.742  16.369  1.00  0.00    -0.239 OA
ENDBRANCH   1   2
BRANCH   1   7
HETATM    7  C   LIG     1      16.822  32.135  15.176  1.00  0.00     0.180 C 
BRANCH   7   8
HETATM    8  C   LIG     1      15.768  32.057  14.066  1.00  0.00     0.027 C 
BRANCH   8   9
HETATM    9  C   LIG     1      15.527  30.629  13.542  1.00  0.00     0.002 C 
BRANCH   9  10
HETATM   10  C   LIG     1      14.778  29.697  14.511  1.00  0.00    -0.004 C 
HETATM   11  C   LIG     1      13.572  30.365  15.169  1.00  0.00     0.005 C 
ENDBRANCH   9  10
ENDBRANCH   8   9
ENDBRANCH   7   8
ENDBRANCH   1   7
TORSDOF 5
ENDMDL
MODEL 11
REMARK VINA RESULT:      -4.5      3.904      4.858
REMARK  5 active torsions:
REMARK  status: ('A' for Active; 'I' for Inactive)
REMARK       I    between atoms: N_1  and  C_2 
REMARK    1  A    between atoms: C_2  and  O_3 
REMARK    2  A    between atoms: O_3  and  C_4 
REMARK    3  A    between atoms: C_4  and  C_5 
REMARK    4  A    between atoms: C_5  and  C_6 
REMARK    5  A    between atoms: C_6  and  C_7 
ROOT
HETATM    1  O   LIG     1      16.531  34.806  21.021  1.00  0.00    -0.304 OA
ENDROOT
BRANCH   1   2
HETATM    2  C   LIG     1      15.453  33.950  20.784  1.00  0.00     0.358 C 
HETATM    3  N   LIG     1      14.228  34.154  21.481  1.00  0.00    -0.346 N 
HETATM    4  H   LIG     1      13.412  33.523  21.316  1.00  0.00     0.161 HD
HETATM    5  H   LIG     1      14.137  34.940  22.162  1.00  0.00     0.161 HD
HETATM    6  O   LIG     1      15.554  33.000  19.959  1.00  0.00    -0.239 OA
ENDBRANCH   1   2
BRANCH   1   7
HETATM    7  C   LIG     1      16.596  35.668  22.152  1.00  0.00     0.180 C 
BRANCH   7   8
HETATM    8  C   LIG     1      17.123  37.046  21.737  1.00  0.00     0.027 C 
BRANCH   8   9
HETATM    9  C   LIG     1      16.835  38.153  22.769  1.00  0.00     0.002 C 
BRANCH   9  10
HETATM   10  C   LIG     1      17.855  38.255  23.917  1.00  0.00    -0.004 C 
HETATM   11  C   LIG     1      17.265  37.880  25.275  1.00  0.00     0.005 C 
ENDBRANCH   9  10
ENDBRANCH   8   9
ENDBRANCH   7   8
ENDBRANCH   1   7
TORSDOF 5
ENDMDL
MODEL 12
REMARK VINA RESULT:      -4.5      5.156      5.745
REMARK  5 active torsions:
REMARK  status: ('A' for Active; 'I' for Inactive)
REMARK       I    between atoms: N_1  and  C_2 
REMARK    1  A    between atoms: C_2  and  O_3 
REMARK    2  A    between atoms: O_3  and  C_4 
REMARK    3  A    between atoms: C_4  and  C_5 
REMARK    4  A    between atoms: C_5  and  C_6 
REMARK    5  A    between atoms: C_6  and  C_7 
ROOT
HETATM    1  O   LIG     1      15.436  33.578  20.566  1.00  0.00    -0.304 OA
ENDROOT
BRANCH   1   2
HETATM    2  C   LIG     1      15.185  32.624  19.576  1.00  0.00     0.358 C 
HETATM    3  N   LIG     1      14.444  31.453  19.902  1.00  0.00    -0.346 N 
HETATM    4  H   LIG     1      14.248  30.730  19.174  1.00  0.00     0.161 HD
HETATM    5  H   LIG     1      14.088  31.310  20.873  1.00  0.00     0.161 HD
HETATM    6  O   LIG     1      15.607  32.791  18.399  1.00  0.00    -0.239 OA
ENDBRANCH   1   2
BRANCH   1   7
HETATM    7  C   LIG     1      15.826  34.914  20.268  1.00  0.00     0.180 C 
BRANCH   7   8
HETATM    8  C   LIG     1      16.850  35.409  21.295  1.00  0.00     0.027 C 
BRANCH   8   9
HETATM    9  C   LIG     1      17.777  36.516  20.759  1.00  0.00     0.002 C 
BRANCH   9  10
HETATM   10  C   LIG     1      17.676  37.863  21.495  1.00  0.00    -0.004 C 
HETATM   11  C   LIG     1      17.182  37.723  22.934  1.00  0.00     0.005 C 
ENDBRANCH   9  10
ENDBRANCH   8   9
ENDBRANCH   7   8
ENDBRANCH   1   7
TORSDOF 5
ENDMDL
MODEL 13
REMARK VINA RESULT:      -4.5     10.393     11.495
REMARK  5 active torsions:
REMARK  status: ('A' for Active; 'I' for Inactive)
REMARK       I    between atoms: N_1  and  C_2 
REMARK    1  A    between atoms: C_2  and  O_3 
REMARK    2  A    between atoms: O_3  and  C_4 
REMARK    3  A    between atoms: C_4  and  C_5 
REMARK    4  A    between atoms: C_5  and  C_6 
REMARK    5  A    between atoms: C_6  and  C_7 
ROOT
HETATM    1  O   LIG     1      17.373  32.566  13.590  1.00  0.00    -0.304 OA
ENDROOT
BRANCH   1   2
HETATM    2  C   LIG     1      17.703  33.861  13.184  1.00  0.00     0.358 C 
HETATM    3  N   LIG     1      18.191  34.080  11.864  1.00  0.00    -0.346 N 
HETATM    4  H   LIG     1      18.443  35.042  11.544  1.00  0.00     0.161 HD
HETATM    5  H   LIG     1      18.298  33.278  11.204  1.00  0.00     0.161 HD
HETATM    6  O   LIG     1      17.572  34.836  13.973  1.00  0.00    -0.239 OA
ENDBRANCH   1   2
BRANCH   1   7
HETATM    7  C   LIG     1      16.081  32.001  13.389  1.00  0.00     0.180 C 
BRANCH   7   8
HETATM    8  C   LIG     1      15.536  31.443  14.708  1.00  0.00     0.027 C 
BRANCH   8   9
HETATM    9  C   LIG     1      14.626  30.214  14.530  1.00  0.00     0.002 C 
BRANCH   9  10
HETATM   10  C   LIG     1      13.276  30.291  15.264  1.00  0.00    -0.004 C 
HETATM   11  C   LIG     1      13.360  31.040  16.593  1.00  0.00     0.005 C 
ENDBRANCH   9  10
ENDBRANCH   8   9
ENDBRANCH   7   8
ENDBRANCH   1   7
TORSDOF 5
ENDMDL
MODEL 14
REMARK VINA RESULT:      -4.5      3.792      5.371
REMARK  5 active torsions:
REMARK  status: ('A' for Active; 'I' for Inactive)
REMARK       I    between atoms: N_1  and  C_2 
REMARK    1  A    between atoms: C_2  and  O_3 
REMARK    2  A    between atoms: O_3  and  C_4 
REMARK    3  A    between atoms: C_4  and  C_5 
REMARK    4  A    between atoms: C_5  and  C_6 
REMARK    5  A    between atoms: C_6  and  C_7 
ROOT
HETATM    1  O   LIG     1      18.339  39.177  19.721  1.00  0.00    -0.304 OA
ENDROOT
BRANCH   1   2
HETATM    2  C   LIG     1      19.160  39.143  18.591  1.00  0.00     0.358 C 
HETATM    3  N   LIG     1      20.564  39.334  18.738  1.00  0.00    -0.346 N 
HETATM    4  H   LIG     1      21.192  39.313  17.904  1.00  0.00     0.161 HD
HETATM    5  H   LIG     1      20.975  39.495  19.684  1.00  0.00     0.161 HD
HETATM    6  O   LIG     1      18.672  38.945  17.445  1.00  0.00    -0.239 OA
ENDBRANCH   1   2
BRANCH   1   7
HETATM    7  C   LIG     1      18.528  38.314  20.837  1.00  0.00     0.180 C 
BRANCH   7   8
HETATM    8  C   LIG     1      18.340  39.091  22.144  1.00  0.00     0.027 C 
BRANCH   8   9
HETATM    9  C   LIG     1      16.948  38.906  22.778  1.00  0.00     0.002 C 
BRANCH   9  10
HETATM   10  C   LIG     1      16.839  37.747  23.784  1.00  0.00    -0.004 C 
HETATM   11  C   LIG     1      17.335  38.119  25.180  1.00  0.00     0.005 C 
ENDBRANCH   9  10
ENDBRANCH   8   9
ENDBRANCH   7   8
ENDBRANCH   1   7
TORSDOF 5
ENDMDL
MODEL 15
REMARK VINA RESULT:      -4.4      1.819      2.697
REMARK  5 active torsions:
REMARK  status: ('A' for Active; 'I' for Inactive)
REMARK       I    between atoms: N_1  and  C_2 
REMARK    1  A    between atoms: C_2  and  O_3 
REMARK    2  A    between atoms: O_3  and  C_4 
REMARK    3  A    between atoms: C_4  and  C_5 
REMARK    4  A    between atoms: C_5  and  C_6 
REMARK    5  A    between atoms: C_6  and  C_7 
ROOT
HETATM    1  O   LIG     1      16.842  36.166  24.830  1.00  0.00    -0.304 OA
ENDROOT
BRANCH   1   2
HETATM    2  C   LIG     1      17.457  37.350  25.246  1.00  0.00     0.358 C 
HETATM    3  N   LIG     1      18.672  37.289  25.985  1.00  0.00    -0.346 N 
HETATM    4  H   LIG     1      19.144  38.164  26.304  1.00  0.00     0.161 HD
HETATM    5  H   LIG     1      19.102  36.365  26.211  1.00  0.00     0.161 HD
HETATM    6  O   LIG     1      16.946  38.471  24.972  1.00  0.00    -0.239 OA
ENDBRANCH   1   2
BRANCH   1   7
HETATM    7  C   LIG     1      17.426  35.291  23.871  1.00  0.00     0.180 C 
BRANCH   7   8
HETATM    8  C   LIG     1      16.541  35.209  22.622  1.00  0.00     0.027 C 
BRANCH   8   9
HETATM    9  C   LIG     1      16.346  36.563  21.914  1.00  0.00     0.002 C 
BRANCH   9  10
HETATM   10  C   LIG     1      17.646  37.274  21.499  1.00  0.00    -0.004 C 
HETATM   11  C   LIG     1      18.276  36.682  20.240  1.00  0.00     0.005 C 
ENDBRANCH   9  10
ENDBRANCH   8   9
ENDBRANCH   7   8
ENDBRANCH   1   7
TORSDOF 5
ENDMDL
MODEL 16
REMARK VINA RESULT:      -4.2     11.746     12.943
REMARK  5 active torsions:
REMARK  status: ('A' for Active; 'I' for Inactive)
REMARK       I    between atoms: N_1  and  C_2 
REMARK    1  A    between atoms: C_2  and  O_3 
REMARK    2  A    between atoms: O_3  and  C_4 
REMARK    3  A    between atoms: C_4  and  C_5 
REMARK    4  A    between atoms: C_5  and  C_6 
REMARK    5  A    between atoms: C_6  and  C_7 
ROOT
HETATM    1  O   LIG     1      15.541  28.780  14.017  1.00  0.00    -0.304 OA
ENDROOT
BRANCH   1   2
HETATM    2  C   LIG     1      14.953  27.727  13.312  1.00  0.00     0.358 C 
HETATM    3  N   LIG     1      15.618  27.186  12.175  1.00  0.00    -0.346 N 
HETATM    4  H   LIG     1      15.193  26.399  11.636  1.00  0.00     0.161 HD
HETATM    5  H   LIG     1      16.540  27.572  11.873  1.00  0.00     0.161 HD
HETATM    6  O   LIG     1      13.841  27.252  13.672  1.00  0.00    -0.239 OA
ENDBRANCH   1   2
BRANCH   1   7
HETATM    7  C   LIG     1      15.307  30.148  13.696  1.00  0.00     0.180 C 
BRANCH   7   8
HETATM    8  C   LIG     1      14.852  30.914  14.943  1.00  0.00     0.027 C 
BRANCH   8   9
HETATM    9  C   LIG     1      13.457  30.499  15.448  1.00  0.00     0.002 C 
BRANCH   9  10
HETATM   10  C   LIG     1      12.910  31.340  16.614  1.00  0.00    -0.004 C 
HETATM   11  C   LIG     1      14.010  31.911  17.507  1.00  0.00     0.005 C 
ENDBRANCH   9  10
ENDBRANCH   8   9
ENDBRANCH   7   8
ENDBRANCH   1   7
TORSDOF 5
ENDMDL
MODEL 17
REMARK VINA RESULT:      -4.2      4.288      5.204
REMARK  5 active torsions:
REMARK  status: ('A' for Active; 'I' for Inactive)
REMARK       I    between atoms: N_1  and  C_2 
REMARK    1  A    between atoms: C_2  and  O_3 
REMARK    2  A    between atoms: O_3  and  C_4 
REMARK    3  A    between atoms: C_4  and  C_5 
REMARK    4  A    between atoms: C_5  and  C_6 
REMARK    5  A    between atoms: C_6  and  C_7 
ROOT
HETATM    1  O   LIG     1      18.346  38.638  19.520  1.00  0.00    -0.304 OA
ENDROOT
BRANCH   1   2
HETATM    2  C   LIG     1      19.413  39.185  18.804  1.00  0.00     0.358 C 
HETATM    3  N   LIG     1      19.211  39.617  17.462  1.00  0.00    -0.346 N 
HETATM    4  H   LIG     1      19.997  40.028  16.912  1.00  0.00     0.161 HD
HETATM    5  H   LIG     1      18.270  39.527  17.019  1.00  0.00     0.161 HD
HETATM    6  O   LIG     1      20.552  39.302  19.334  1.00  0.00    -0.239 OA
ENDBRANCH   1   2
BRANCH   1   7
HETATM    7  C   LIG     1      18.517  37.616  20.498  1.00  0.00     0.180 C 
BRANCH   7   8
HETATM    8  C   LIG     1      17.657  37.914  21.730  1.00  0.00     0.027 C 
BRANCH   8   9
HETATM    9  C   LIG     1      16.574  36.852  21.998  1.00  0.00     0.002 C 
BRANCH   9  10
HETATM   10  C   LIG     1      17.037  35.393  21.837  1.00  0.00    -0.004 C 
HETATM   11  C   LIG     1      16.106  34.564  20.955  1.00  0.00     0.005 C 
ENDBRANCH   9  10
ENDBRANCH   8   9
ENDBRANCH   7   8
ENDBRANCH   1   7
TORSDOF 5
ENDMDL
MODEL 18
REMARK VINA RESULT:      -4.1      9.457     10.482
REMARK  5 active torsions:
REMARK  status: ('A' for Active; 'I' for Inactive)
REMARK       I    between atoms: N_1  and  C_2 
REMARK    1  A    between atoms: C_2  and  O_3 
REMARK    2  A    between atoms: O_3  and  C_4 
REMARK    3  A    between atoms: C_4  and  C_5 
REMARK    4  A    between atoms: C_5  and  C_6 
REMARK    5  A    between atoms: C_6  and  C_7 
ROOT
HETATM    1  O   LIG     1      14.233  31.788  16.810  1.00  0.00    -0.304 OA
ENDROOT
BRANCH   1   2
HETATM    2  C   LIG     1      14.611  32.155  18.104  1.00  0.00     0.358 C 
HETATM    3  N   LIG     1      15.246  33.411  18.320  1.00  0.00    -0.346 N 
HETATM    4  H   LIG     1      15.536  33.701  19.281  1.00  0.00     0.161 HD
HETATM    5  H   LIG     1      15.424  34.054  17.518  1.00  0.00     0.161 HD
HETATM    6  O   LIG     1      14.396  31.386  19.081  1.00  0.00    -0.239 OA
ENDBRANCH   1   2
BRANCH   1   7
HETATM    7  C   LIG     1      13.547  30.574  16.523  1.00  0.00     0.180 C 
BRANCH   7   8
HETATM    8  C   LIG     1      13.512  30.331  15.010  1.00  0.00     0.027 C 
BRANCH   8   9
HETATM    9  C   LIG     1      14.908  30.280  14.361  1.00  0.00     0.002 C 
BRANCH   9  10
HETATM   10  C   LIG     1      15.379  28.877  13.938  1.00  0.00    -0.004 C 
HETATM   11  C   LIG     1      14.234  27.872  13.821  1.00  0.00     0.005 C 
ENDBRANCH   9  10
ENDBRANCH   8   9
ENDBRANCH   7   8
ENDBRANCH   1   7
TORSDOF 5
ENDMDL
MODEL 19
REMARK VINA RESULT:      -4.1      3.276      4.046
REMARK  5 active torsions:
REMARK  status: ('A' for Active; 'I' for Inactive)
REMARK       I    between atoms: N_1  and  C_2 
REMARK    1  A    between atoms: C_2  and  O_3 
REMARK    2  A    between atoms: O_3  and  C_4 
REMARK    3  A    between atoms: C_4  and  C_5 
REMARK    4  A    between atoms: C_5  and  C_6 
REMARK    5  A    between atoms: C_6  and  C_7 
ROOT
HETATM    1  O   LIG     1      17.220  38.120  22.101  1.00  0.00    -0.304 OA
ENDROOT
BRANCH   1   2
HETATM    2  C   LIG     1      18.228  38.513  21.218  1.00  0.00     0.358 C 
HETATM    3  N   LIG     1      18.861  39.777  21.392  1.00  0.00    -0.346 N 
HETATM    4  H   LIG     1      19.617  40.086  20.741  1.00  0.00     0.161 HD
HETATM    5  H   LIG     1      18.576  40.403  22.178  1.00  0.00     0.161 HD
HETATM    6  O   LIG     1      18.583  37.761  20.269  1.00  0.00    -0.239 OA
ENDBRANCH   1   2
BRANCH   1   7
HETATM    7  C   LIG     1      17.491  37.513  23.360  1.00  0.00     0.180 C 
BRANCH   7   8
HETATM    8  C   LIG     1      16.784  36.156  23.456  1.00  0.00     0.027 C 
BRANCH   8   9
HETATM    9  C   LIG     1      16.960  35.278  22.203  1.00  0.00     0.002 C 
BRANCH   9  10
HETATM   10  C   LIG     1      15.691  35.098  21.350  1.00  0.00    -0.004 C 
HETATM   11  C   LIG     1      15.732  33.846  20.475  1.00  0.00     0.005 C 
ENDBRANCH   9  10
ENDBRANCH   8   9
ENDBRANCH   7   8
ENDBRANCH   1   7
TORSDOF 5
ENDMDL
MODEL 20
REMARK VINA RESULT:      -3.8      9.523     10.861
REMARK  5 active torsions:
REMARK  status: ('A' for Active; 'I' for Inactive)
REMARK       I    between atoms: N_1  and  C_2 
REMARK    1  A    between atoms: C_2  and  O_3 
REMARK    2  A    between atoms: O_3  and  C_4 
REMARK    3  A    between atoms: C_4  and  C_5 
REMARK    4  A    between atoms: C_5  and  C_6 
REMARK    5  A    between atoms: C_6  and  C_7 
ROOT
HETATM    1  O   LIG     1      16.427  32.410  13.654  1.00  0.00    -0.304 OA
ENDROOT
BRANCH   1   2
HETATM    2  C   LIG     1      17.113  32.866  14.782  1.00  0.00     0.358 C 
HETATM    3  N   LIG     1      16.815  34.154  15.311  1.00  0.00    -0.346 N 
HETATM    4  H   LIG     1      17.319  34.512  16.153  1.00  0.00     0.161 HD
HETATM    5  H   LIG     1      16.086  34.751  14.861  1.00  0.00     0.161 HD
HETATM    6  O   LIG     1      17.992  32.150  15.335  1.00  0.00    -0.239 OA
ENDBRANCH   1   2
BRANCH   1   7
HETATM    7  C   LIG     1      15.633  31.227  13.661  1.00  0.00     0.180 C 
BRANCH   7   8
HETATM    8  C   LIG     1      15.076  30.973  15.066  1.00  0.00     0.027 C 
BRANCH   8   9
HETATM    9  C   LIG     1      13.675  30.333  15.068  1.00  0.00     0.002 C 
BRANCH   9  10
HETATM   10  C   LIG     1      12.797  30.690  16.280  1.00  0.00    -0.004 C 
HETATM   11  C   LIG     1      12.988  32.130  16.753  1.00  0.00     0.005 C 
ENDBRANCH   9  10
ENDBRANCH   8   9
ENDBRANCH   7   8
ENDBRANCH   1   7
TORSDOF 5
ENDMDL
