REMARK  5 active torsions:
REMARK  status: ('A' for Active; 'I' for Inactive)
REMARK       I    between atoms: N_1  and  C_2 
REMARK    1  A    between atoms: C_2  and  O_3 
REMARK    2  A    between atoms: O_3  and  C_4 
REMARK    3  A    between atoms: C_4  and  C_5 
REMARK    4  A    between atoms: C_5  and  C_6 
REMARK    5  A    between atoms: C_6  and  C_7 
ROOT
HETATM    1  O   LIG     1      -1.199  -0.273   0.538  1.00  0.00    -0.304 OA
ENDROOT
BRANCH   1   2
HETATM    2  C   LIG     1      -2.573  -0.021   0.515  1.00  0.00     0.358 C 
HETATM    3  N   LIG     1      -3.063   1.240   0.959  1.00  0.00    -0.346 N 
HETATM    4  H   LIG     1      -4.087   1.445   0.949  1.00  0.00     0.161 HD
HETATM    5  H   LIG     1      -2.399   1.972   1.296  1.00  0.00     0.161 HD
HETATM    6  O   LIG     1      -3.382  -0.898   0.105  1.00  0.00    -0.239 OA
ENDBRANCH   1   2
BRANCH   1   7
HETATM    7  C   LIG     1      -0.634  -1.504   0.099  1.00  0.00     0.180 C 
BRANCH   7   8
HETATM    8  C   LIG     1       0.892  -1.464   0.235  1.00  0.00     0.027 C 
BRANCH   8   9
HETATM    9  C   LIG     1       1.595  -0.717  -0.914  1.00  0.00     0.002 C 
BRANCH   9  10
HETATM   10  C   LIG     1       1.263   0.782  -1.016  1.00  0.00    -0.004 C 
HETATM   11  C   LIG     1       1.696   1.575   0.216  1.00  0.00     0.005 C 
ENDBRANCH   9  10
ENDBRANCH   8   9
ENDBRANCH   7   8
ENDBRANCH   1   7
TORSDOF 5
