REMARK  1 active torsions:
REMARK  status: ('A' for Active; 'I' for Inactive)
REMARK    1  A    between atoms: C_2  and  O_3 
ROOT
HETATM    1  C   LIG     1      -0.826  -0.188   0.045  1.00  0.00     0.125 C 
HETATM    2  C   LIG     1       0.449   0.591   0.030  1.00  0.00     0.135 C 
HETATM    3  O   LIG     1       0.416   1.841   0.171  1.00  0.00    -0.650 OA
ENDROOT
BRANCH   2   4
HETATM    4  O   LIG     1       1.676  -0.046  -0.138  1.00  0.00    -0.777 OA
HETATM    5  H   LIG     1       1.738  -1.050  -0.254  1.00  0.00     0.167 HD
ENDBRANCH   2   4
TORSDOF 1
