MODEL 1
REMARK VINA RESULT:      -3.2      0.000      0.000
REMARK  1 active torsions:
REMARK  status: ('A' for Active; 'I' for Inactive)
REMARK    1  A    between atoms: C_2  and  O_3 
ROOT
HETATM    1  C   LIG     1      19.293  37.534  19.523  1.00  0.00     0.125 C 
HETATM    2  C   LIG     1      19.707  38.967  19.612  1.00  0.00     0.135 C 
HETATM    3  O   LIG     1      19.033  39.767  20.311  1.00  0.00    -0.650 OA
ENDROOT
BRANCH   2   4
HETATM    4  O   LIG     1      20.831  39.431  18.932  1.00  0.00    -0.777 OA
HETATM    5  H   LIG     1      21.239  38.908  18.167  1.00  0.00     0.167 HD
ENDBRANCH   2   4
TORSDOF 1
ENDMDL
MODEL 2
REMARK VINA RESULT:      -3.2     12.407     12.769
REMARK  1 active torsions:
REMARK  status: ('A' for Active; 'I' for Inactive)
REMARK    1  A    between atoms: C_2  and  O_3 
ROOT
HETATM    1  C   LIG     1      12.600  30.476  26.718  1.00  0.00     0.125 C 
HETATM    2  C   LIG     1      13.083  31.608  27.565  1.00  0.00     0.135 C 
HETATM    3  O   LIG     1      12.746  32.786  27.280  1.00  0.00    -0.650 OA
ENDROOT
BRANCH   2   4
HETATM    4  O   LIG     1      13.901  31.379  28.668  1.00  0.00    -0.777 OA
HETATM    5  H   LIG     1      14.165  32.130  29.295  1.00  0.00     0.167 HD
ENDBRANCH   2   4
TORSDOF 1
ENDMDL
MODEL 3
REMARK VINA RESULT:      -3.2      6.421      6.730
REMARK  1 active torsions:
REMARK  status: ('A' for Active; 'I' for Inactive)
REMARK    1  A    between atoms: C_2  and  O_3 
ROOT
HETATM    1  C   LIG     1      18.403  36.689  26.412  1.00  0.00     0.125 C 
HETATM    2  C   LIG     1      17.502  37.489  25.529  1.00  0.00     0.135 C 
HETATM    3  O   LIG     1      16.931  36.933  24.555  1.00  0.00    -0.650 OA
ENDROOT
BRANCH   2   4
HETATM    4  O   LIG     1      17.283  38.844  25.767  1.00  0.00    -0.777 OA
HETATM    5  H   LIG     1      16.727  39.159  26.552  1.00  0.00     0.167 HD
ENDBRANCH   2   4
TORSDOF 1
ENDMDL
MODEL 4
REMARK VINA RESULT:      -3.0      7.413      8.024
REMARK  1 active torsions:
REMARK  status: ('A' for Active; 'I' for Inactive)
REMARK    1  A    between atoms: C_2  and  O_3 
ROOT
HETATM    1  C   LIG     1      18.314  36.097  26.325  1.00  0.00     0.125 C 
HETATM    2  C   LIG     1      17.400  35.041  25.794  1.00  0.00     0.135 C 
HETATM    3  O   LIG     1      17.375  34.804  24.559  1.00  0.00    -0.650 OA
ENDROOT
BRANCH   2   4
HETATM    4  O   LIG     1      16.573  34.314  26.647  1.00  0.00    -0.777 OA
HETATM    5  H   LIG     1      15.606  34.128  26.412  1.00  0.00     0.167 HD
ENDBRANCH   2   4
TORSDOF 1
ENDMDL
MODEL 5
REMARK VINA RESULT:      -2.9      5.313      5.560
REMARK  1 active torsions:
REMARK  status: ('A' for Active; 'I' for Inactive)
REMARK    1  A    between atoms: C_2  and  O_3 
ROOT
HETATM    1  C   LIG     1      17.110  36.941  22.611  1.00  0.00     0.125 C 
HETATM    2  C   LIG     1      16.255  37.769  23.515  1.00  0.00     0.135 C 
HETATM    3  O   LIG     1      16.692  38.107  24.646  1.00  0.00    -0.650 OA
ENDROOT
BRANCH   2   4
HETATM    4  O   LIG     1      14.981  38.173  23.125  1.00  0.00    -0.777 OA
HETATM    5  H   LIG     1      14.707  39.148  23.145  1.00  0.00     0.167 HD
ENDBRANCH   2   4
TORSDOF 1
ENDMDL
MODEL 6
REMARK VINA RESULT:      -2.9      5.279      5.699
REMARK  1 active torsions:
REMARK  status: ('A' for Active; 'I' for Inactive)
REMARK    1  A    between atoms: C_2  and  O_3 
ROOT
HETATM    1  C   LIG     1      17.704  37.458  25.770  1.00  0.00     0.125 C 
HETATM    2  C   LIG     1      17.193  37.972  24.463  1.00  0.00     0.135 C 
HETATM    3  O   LIG     1      15.955  37.976  24.238  1.00  0.00    -0.650 OA
ENDROOT
BRANCH   2   4
HETATM    4  O   LIG     1      18.067  38.446  23.488  1.00  0.00    -0.777 OA
HETATM    5  H   LIG     1      18.614  39.286  23.634  1.00  0.00     0.167 HD
ENDBRANCH   2   4
TORSDOF 1
ENDMDL
MODEL 7
REMARK VINA RESULT:      -2.8      1.539      1.942
REMARK  1 active torsions:
REMARK  status: ('A' for Active; 'I' for Inactive)
REMARK    1  A    between atoms: C_2  and  O_3 
ROOT
HETATM    1  C   LIG     1      18.764  39.318  20.952  1.00  0.00     0.125 C 
HETATM    2  C   LIG     1      19.623  38.731  19.879  1.00  0.00     0.135 C 
HETATM    3  O   LIG     1      20.455  39.460  19.280  1.00  0.00    -0.650 OA
ENDROOT
BRANCH   2   4
HETATM    4  O   LIG     1      19.516  37.387  19.531  1.00  0.00    -0.777 OA
HETATM    5  H   LIG     1      18.613  36.940  19.422  1.00  0.00     0.167 HD
ENDBRANCH   2   4
TORSDOF 1
ENDMDL
MODEL 8
REMARK VINA RESULT:      -2.8     12.873     13.291
REMARK  1 active torsions:
REMARK  status: ('A' for Active; 'I' for Inactive)
REMARK    1  A    between atoms: C_2  and  O_3 
ROOT
HETATM    1  C   LIG     1      13.422  32.158  27.517  1.00  0.00     0.125 C 
HETATM    2  C   LIG     1      13.203  30.680  27.534  1.00  0.00     0.135 C 
HETATM    3  O   LIG     1      13.581  30.006  28.527  1.00  0.00    -0.650 OA
ENDROOT
BRANCH   2   4
HETATM    4  O   LIG     1      12.586  30.034  26.465  1.00  0.00    -0.777 OA
HETATM    5  H   LIG     1      11.615  29.751  26.509  1.00  0.00     0.167 HD
ENDBRANCH   2   4
TORSDOF 1
ENDMDL
MODEL 9
REMARK VINA RESULT:      -2.8      8.036      8.554
REMARK  1 active torsions:
REMARK  status: ('A' for Active; 'I' for Inactive)
REMARK    1  A    between atoms: C_2  and  O_3 
ROOT
HETATM    1  C   LIG     1      15.374  31.865  19.802  1.00  0.00     0.125 C 
HETATM    2  C   LIG     1      14.890  32.248  18.441  1.00  0.00     0.135 C 
HETATM    3  O   LIG     1      15.657  32.870  17.660  1.00  0.00    -0.650 OA
ENDROOT
BRANCH   2   4
HETATM    4  O   LIG     1      13.601  31.927  18.022  1.00  0.00    -0.777 OA
HETATM    5  H   LIG     1      12.790  32.400  18.401  1.00  0.00     0.167 HD
ENDBRANCH   2   4
TORSDOF 1
ENDMDL
MODEL 10
REMARK VINA RESULT:      -2.8      5.537      5.974
REMARK  1 active torsions:
REMARK  status: ('A' for Active; 'I' for Inactive)
REMARK    1  A    between atoms: C_2  and  O_3 
ROOT
HETATM    1  C   LIG     1      16.648  35.146  21.927  1.00  0.00     0.125 C 
HETATM    2  C   LIG     1      15.639  35.302  20.836  1.00  0.00     0.135 C 
HETATM    3  O   LIG     1      15.973  35.079  19.643  1.00  0.00    -0.650 OA
ENDROOT
BRANCH   2   4
HETATM    4  O   LIG     1      14.332  35.691  21.119  1.00  0.00    -0.777 OA
HETATM    5  H   LIG     1      14.096  36.154  21.988  1.00  0.00     0.167 HD
ENDBRANCH   2   4
TORSDOF 1
ENDMDL
MODEL 11
REMARK VINA RESULT:      -2.8      5.830      6.201
REMARK  1 active torsions:
REMARK  status: ('A' for Active; 'I' for Inactive)
REMARK    1  A    between atoms: C_2  and  O_3 
ROOT
HETATM    1  C   LIG     1      16.932  37.917  23.375  1.00  0.00     0.125 C 
HETATM    2  C   LIG     1      17.142  37.695  24.838  1.00  0.00     0.135 C 
HETATM    3  O   LIG     1      17.203  36.521  25.286  1.00  0.00    -0.650 OA
ENDROOT
BRANCH   2   4
HETATM    4  O   LIG     1      17.270  38.770  25.714  1.00  0.00    -0.777 OA
HETATM    5  H   LIG     1      18.163  39.223  25.867  1.00  0.00     0.167 HD
ENDBRANCH   2   4
TORSDOF 1
ENDMDL
MODEL 12
REMARK VINA RESULT:      -2.6      9.272      9.766
REMARK  1 active torsions:
REMARK  status: ('A' for Active; 'I' for Inactive)
REMARK    1  A    between atoms: C_2  and  O_3 
ROOT
HETATM    1  C   LIG     1      14.887  32.196  16.358  1.00  0.00     0.125 C 
HETATM    2  C   LIG     1      13.914  31.615  17.331  1.00  0.00     0.135 C 
HETATM    3  O   LIG     1      12.997  30.859  16.917  1.00  0.00    -0.650 OA
ENDROOT
BRANCH   2   4
HETATM    4  O   LIG     1      14.006  31.897  18.692  1.00  0.00    -0.777 OA
HETATM    5  H   LIG     1      13.222  31.748  19.315  1.00  0.00     0.167 HD
ENDBRANCH   2   4
TORSDOF 1
ENDMDL
MODEL 13
REMARK VINA RESULT:      -2.5      2.694      3.077
REMARK  1 active torsions:
REMARK  status: ('A' for Active; 'I' for Inactive)
REMARK    1  A    between atoms: C_2  and  O_3 
ROOT
HETATM    1  C   LIG     1      16.971  38.913  22.582  1.00  0.00     0.125 C 
HETATM    2  C   LIG     1      18.047  38.810  21.549  1.00  0.00     0.135 C 
HETATM    3  O   LIG     1      18.187  37.740  20.902  1.00  0.00    -0.650 OA
ENDROOT
BRANCH   2   4
HETATM    4  O   LIG     1      18.899  39.881  21.292  1.00  0.00    -0.777 OA
HETATM    5  H   LIG     1      19.367  39.981  20.400  1.00  0.00     0.167 HD
ENDBRANCH   2   4
TORSDOF 1
ENDMDL
MODEL 14
REMARK VINA RESULT:      -2.5     16.124     16.393
REMARK  1 active torsions:
REMARK  status: ('A' for Active; 'I' for Inactive)
REMARK    1  A    between atoms: C_2  and  O_3 
ROOT
HETATM    1  C   LIG     1      17.176  44.960  33.753  1.00  0.00     0.125 C 
HETATM    2  C   LIG     1      16.182  44.248  34.612  1.00  0.00     0.135 C 
HETATM    3  O   LIG     1      15.047  44.758  34.804  1.00  0.00    -0.650 OA
ENDROOT
BRANCH   2   4
HETATM    4  O   LIG     1      16.492  43.027  35.205  1.00  0.00    -0.777 OA
HETATM    5  H   LIG     1      17.419  42.626  35.135  1.00  0.00     0.167 HD
ENDBRANCH   2   4
TORSDOF 1
ENDMDL
MODEL 15
REMARK VINA RESULT:      -2.5      8.409      8.770
REMARK  1 active torsions:
REMARK  status: ('A' for Active; 'I' for Inactive)
REMARK    1  A    between atoms: C_2  and  O_3 
ROOT
HETATM    1  C   LIG     1      19.060  33.773  13.068  1.00  0.00     0.125 C 
HETATM    2  C   LIG     1      17.638  34.137  12.788  1.00  0.00     0.135 C 
HETATM    3  O   LIG     1      17.358  35.304  12.411  1.00  0.00    -0.650 OA
ENDROOT
BRANCH   2   4
HETATM    4  O   LIG     1      16.616  33.203  12.938  1.00  0.00    -0.777 OA
HETATM    5  H   LIG     1      16.705  32.261  12.577  1.00  0.00     0.167 HD
ENDBRANCH   2   4
TORSDOF 1
ENDMDL
MODEL 16
REMARK VINA RESULT:      -2.5     11.451     11.850
REMARK  1 active torsions:
REMARK  status: ('A' for Active; 'I' for Inactive)
REMARK    1  A    between atoms: C_2  and  O_3 
ROOT
HETATM    1  C   LIG     1      14.281  30.593  15.256  1.00  0.00     0.125 C 
HETATM    2  C   LIG     1      14.827  29.874  14.065  1.00  0.00     0.135 C 
HETATM    3  O   LIG     1      15.785  30.375  13.421  1.00  0.00    -0.650 OA
ENDROOT
BRANCH   2   4
HETATM    4  O   LIG     1      14.291  28.655  13.656  1.00  0.00    -0.777 OA
HETATM    5  H   LIG     1      14.667  28.153  12.862  1.00  0.00     0.167 HD
ENDBRANCH   2   4
TORSDOF 1
ENDMDL
MODEL 17
REMARK VINA RESULT:      -2.5      3.549      4.064
REMARK  1 active torsions:
REMARK  status: ('A' for Active; 'I' for Inactive)
REMARK    1  A    between atoms: C_2  and  O_3 
ROOT
HETATM    1  C   LIG     1      18.506  39.306  21.448  1.00  0.00     0.125 C 
HETATM    2  C   LIG     1      17.358  38.623  22.118  1.00  0.00     0.135 C 
HETATM    3  O   LIG     1      17.099  37.424  21.839  1.00  0.00    -0.650 OA
ENDROOT
BRANCH   2   4
HETATM    4  O   LIG     1      16.568  39.295  23.047  1.00  0.00    -0.777 OA
HETATM    5  H   LIG     1      15.974  38.793  23.696  1.00  0.00     0.167 HD
ENDBRANCH   2   4
TORSDOF 1
ENDMDL
MODEL 18
REMARK VINA RESULT:      -2.4      6.725      7.010
REMARK  1 active torsions:
REMARK  status: ('A' for Active; 'I' for Inactive)
REMARK    1  A    between atoms: C_2  and  O_3 
ROOT
HETATM    1  C   LIG     1      14.517  32.951  16.872  1.00  0.00     0.125 C 
HETATM    2  C   LIG     1      15.431  34.128  16.985  1.00  0.00     0.135 C 
HETATM    3  O   LIG     1      15.517  34.746  18.078  1.00  0.00    -0.650 OA
ENDROOT
BRANCH   2   4
HETATM    4  O   LIG     1      16.192  34.551  15.898  1.00  0.00    -0.777 OA
HETATM    5  H   LIG     1      16.671  33.890  15.299  1.00  0.00     0.167 HD
ENDBRANCH   2   4
TORSDOF 1
ENDMDL
MODEL 19
REMARK VINA RESULT:      -2.4      7.927      8.232
REMARK  1 active torsions:
REMARK  status: ('A' for Active; 'I' for Inactive)
REMARK    1  A    between atoms: C_2  and  O_3 
ROOT
HETATM    1  C   LIG     1      15.646  31.661  14.825  1.00  0.00     0.125 C 
HETATM    2  C   LIG     1      16.583  32.715  15.319  1.00  0.00     0.135 C 
HETATM    3  O   LIG     1      16.121  33.771  15.824  1.00  0.00    -0.650 OA
ENDROOT
BRANCH   2   4
HETATM    4  O   LIG     1      17.962  32.547  15.229  1.00  0.00    -0.777 OA
HETATM    5  H   LIG     1      18.550  32.550  16.054  1.00  0.00     0.167 HD
ENDBRANCH   2   4
TORSDOF 1
ENDMDL
MODEL 20
REMARK VINA RESULT:      -2.4      9.283      9.598
REMARK  1 active torsions:
REMARK  status: ('A' for Active; 'I' for Inactive)
REMARK    1  A    between atoms: C_2  and  O_3 
ROOT
HETATM    1  C   LIG     1      15.479  30.884  13.629  1.00  0.00     0.125 C 
HETATM    2  C   LIG     1      15.979  32.270  13.874  1.00  0.00     0.135 C 
HETATM    3  O   LIG     1      15.888  32.771  15.025  1.00  0.00    -0.650 OA
ENDROOT
BRANCH   2   4
HETATM    4  O   LIG     1      16.546  33.019  12.845  1.00  0.00    -0.777 OA
HETATM    5  H   LIG     1      16.877  32.581  11.994  1.00  0.00     0.167 HD
ENDBRANCH   2   4
TORSDOF 1
ENDMDL
