REMARK  3 active torsions:
REMARK  status: ('A' for Active; 'I' for Inactive)
REMARK    1  A    between atoms: C_19  and  C_20 
REMARK    2  A    between atoms: C_20  and  C_21 
REMARK    3  A    between atoms: C_21  and  O_22 
ROOT
HETATM    1  O   LIG     1      -6.240  -1.598  -0.350  1.00  0.00    -0.293 OA
HETATM    2  C   LIG     1      -5.115  -1.134  -0.026  1.00  0.00     0.149 C 
HETATM    3  C   LIG     1      -4.559  -1.430   1.335  1.00  0.00     0.084 C 
HETATM    4  C   LIG     1      -3.041  -1.201   1.385  1.00  0.00     0.022 C 
HETATM    5  C   LIG     1      -2.614   0.158   0.751  1.00  0.00    -0.016 C 
HETATM    6  C   LIG     1      -3.160   1.327   1.608  1.00  0.00     0.020 C 
HETATM    7  C   LIG     1      -3.209   0.284  -0.661  1.00  0.00    -0.068 C 
HETATM    8  C   LIG     1      -2.401   1.003  -1.730  1.00  0.00     0.035 C 
HETATM    9  C   LIG     1      -0.988   0.390  -1.902  1.00  0.00     0.010 C 
HETATM   10  C   LIG     1      -0.543  -0.421  -0.662  1.00  0.00    -0.004 C 
HETATM   11  C   LIG     1      -1.048   0.275   0.640  1.00  0.00     0.002 C 
HETATM   12  C   LIG     1      -0.233  -0.180   1.879  1.00  0.00     0.007 C 
HETATM   13  C   LIG     1       1.280   0.172   1.754  1.00  0.00     0.011 C 
HETATM   14  C   LIG     1       1.821   0.164   0.283  1.00  0.00    -0.030 C 
HETATM   15  C   LIG     1       1.886   1.617  -0.290  1.00  0.00     0.016 C 
HETATM   16  C   LIG     1       0.963  -0.782  -0.570  1.00  0.00    -0.001 C 
HETATM   17  C   LIG     1       1.769  -1.060  -1.833  1.00  0.00     0.006 C 
HETATM   18  C   LIG     1       3.235  -0.971  -1.371  1.00  0.00     0.013 C 
HETATM   19  C   LIG     1       3.207  -0.514   0.114  1.00  0.00     0.066 C 
HETATM   20  C   LIG     1      -4.380  -0.290  -0.982  1.00  0.00     0.053 C 
ENDROOT
BRANCH  19  21
HETATM   21  C   LIG     1       4.385   0.323   0.595  1.00  0.00     0.154 C 
HETATM   22  O   LIG     1       4.440   0.620   1.779  1.00  0.00    -0.295 OA
BRANCH  21  23
HETATM   23  C   LIG     1       5.499   0.781  -0.308  1.00  0.00     0.242 C 
BRANCH  23  24
HETATM   24  O   LIG     1       6.190  -0.330  -0.806  1.00  0.00    -0.394 OA
HETATM   25  H   LIG     1       6.880   0.029  -1.423  1.00  0.00     0.209 HD
ENDBRANCH  23  24
ENDBRANCH  21  23
ENDBRANCH  19  21
TORSDOF 3
