REMARK  6 active torsions:
REMARK  status: ('A' for Active; 'I' for Inactive)
REMARK    1  A    between atoms: O_1  and  C_2 
REMARK    2  A    between atoms: C_3  and  O_4 
REMARK    3  A    between atoms: C_5  and  O_6 
REMARK    4  A    between atoms: C_7  and  O_8 
REMARK    5  A    between atoms: C_9  and  O_10 
REMARK    6  A    between atoms: C_11  and  O_12 
ROOT
HETATM    1  C   LIG     1      -0.482   1.326  -0.032  1.00  0.00     0.180 C 
HETATM    2  C   LIG     1      -1.387   0.130   0.317  1.00  0.00     0.180 C 
HETATM    3  C   LIG     1      -0.764  -1.206  -0.148  1.00  0.00     0.180 C 
HETATM    4  C   LIG     1       0.644  -1.403   0.458  1.00  0.00     0.180 C 
HETATM    5  C   LIG     1       1.585  -0.203   0.203  1.00  0.00     0.180 C 
HETATM    6  C   LIG     1       0.923   1.144   0.593  1.00  0.00     0.180 C 
ENDROOT
BRANCH   1   7
HETATM    7  O   LIG     1      -1.071   2.499   0.470  1.00  0.00    -0.390 OA
HETATM    8  H   LIG     1      -0.683   3.258  -0.038  1.00  0.00     0.210 HD
ENDBRANCH   1   7
BRANCH   2   9
HETATM    9  O   LIG     1      -2.645   0.312  -0.281  1.00  0.00    -0.390 OA
HETATM   10  H   LIG     1      -3.269  -0.316   0.168  1.00  0.00     0.210 HD
ENDBRANCH   2   9
BRANCH   6  11
HETATM   11  O   LIG     1       1.768   2.223   0.279  1.00  0.00    -0.390 OA
HETATM   12  H   LIG     1       1.794   2.312  -0.709  1.00  0.00     0.210 HD
ENDBRANCH   6  11
BRANCH   3  13
HETATM   13  O   LIG     1      -0.704  -1.270  -1.551  1.00  0.00    -0.390 OA
HETATM   14  H   LIG     1      -1.611  -1.517  -1.871  1.00  0.00     0.210 HD
ENDBRANCH   3  13
BRANCH   5  15
HETATM   15  O   LIG     1       2.085  -0.202  -1.114  1.00  0.00    -0.390 OA
HETATM   16  H   LIG     1       1.356   0.064  -1.728  1.00  0.00     0.210 HD
ENDBRANCH   5  15
BRANCH   4  17
HETATM   17  O   LIG     1       1.232  -2.576  -0.044  1.00  0.00    -0.390 OA
HETATM   18  H   LIG     1       0.758  -3.339   0.379  1.00  0.00     0.210 HD
ENDBRANCH   4  17
TORSDOF 6
