MODEL 1
REMARK VINA RESULT:      -4.4      0.000      0.000
REMARK  1 active torsions:
REMARK  status: ('A' for Active; 'I' for Inactive)
REMARK    1  A    between atoms: C_3  and  C_4 
ROOT
HETATM    1  C   LIG     1      17.282  34.734  26.080  1.00  0.00     0.036 C 
HETATM    2  C   LIG     1      18.428  35.631  26.463  1.00  0.00    -0.035 C 
HETATM    3  C   LIG     1      18.492  36.955  26.227  1.00  0.00    -0.031 C 
ENDROOT
BRANCH   3   4
HETATM    4  C   LIG     1      17.414  37.767  25.555  1.00  0.00     0.022 C 
HETATM    5  C   LIG     1      17.840  38.209  24.157  1.00  0.00     0.009 C 
ENDBRANCH   3   4
TORSDOF 1
ENDMDL
MODEL 2
REMARK VINA RESULT:      -4.3      2.000      2.471
REMARK  1 active torsions:
REMARK  status: ('A' for Active; 'I' for Inactive)
REMARK    1  A    between atoms: C_3  and  C_4 
ROOT
HETATM    1  C   LIG     1      18.448  36.449  26.706  1.00  0.00     0.036 C 
HETATM    2  C   LIG     1      17.930  35.110  26.254  1.00  0.00    -0.035 C 
HETATM    3  C   LIG     1      17.347  34.863  25.066  1.00  0.00    -0.031 C 
ENDROOT
BRANCH   3   4
HETATM    4  C   LIG     1      17.132  35.885  23.978  1.00  0.00     0.022 C 
HETATM    5  C   LIG     1      16.940  35.218  22.618  1.00  0.00     0.009 C 
ENDBRANCH   3   4
TORSDOF 1
ENDMDL
MODEL 3
REMARK VINA RESULT:      -4.0      0.999      3.161
REMARK  1 active torsions:
REMARK  status: ('A' for Active; 'I' for Inactive)
REMARK    1  A    between atoms: C_3  and  C_4 
ROOT
HETATM    1  C   LIG     1      16.726  37.988  23.397  1.00  0.00     0.036 C 
HETATM    2  C   LIG     1      17.475  38.179  24.688  1.00  0.00    -0.035 C 
HETATM    3  C   LIG     1      17.815  37.196  25.542  1.00  0.00    -0.031 C 
ENDROOT
BRANCH   3   4
HETATM    4  C   LIG     1      17.518  35.732  25.339  1.00  0.00     0.022 C 
HETATM    5  C   LIG     1      18.283  34.866  26.337  1.00  0.00     0.009 C 
ENDBRANCH   3   4
TORSDOF 1
ENDMDL
MODEL 4
REMARK VINA RESULT:      -3.9      1.165      3.217
REMARK  1 active torsions:
REMARK  status: ('A' for Active; 'I' for Inactive)
REMARK    1  A    between atoms: C_3  and  C_4 
ROOT
HETATM    1  C   LIG     1      17.163  37.872  25.114  1.00  0.00     0.036 C 
HETATM    2  C   LIG     1      17.186  36.738  24.125  1.00  0.00    -0.035 C 
HETATM    3  C   LIG     1      17.226  35.430  24.443  1.00  0.00    -0.031 C 
ENDROOT
BRANCH   3   4
HETATM    4  C   LIG     1      17.233  34.880  25.846  1.00  0.00     0.022 C 
HETATM    5  C   LIG     1      18.648  34.835  26.419  1.00  0.00     0.009 C 
ENDBRANCH   3   4
TORSDOF 1
ENDMDL
MODEL 5
REMARK VINA RESULT:      -3.9      4.548      5.893
REMARK  1 active torsions:
REMARK  status: ('A' for Active; 'I' for Inactive)
REMARK    1  A    between atoms: C_3  and  C_4 
ROOT
HETATM    1  C   LIG     1      19.125  36.973  19.536  1.00  0.00     0.036 C 
HETATM    2  C   LIG     1      19.136  38.466  19.352  1.00  0.00    -0.035 C 
HETATM    3  C   LIG     1      18.967  39.372  20.334  1.00  0.00    -0.031 C 
ENDROOT
BRANCH   3   4
HETATM    4  C   LIG     1      18.759  39.041  21.790  1.00  0.00     0.022 C 
HETATM    5  C   LIG     1      17.278  38.860  22.113  1.00  0.00     0.009 C 
ENDBRANCH   3   4
TORSDOF 1
ENDMDL
MODEL 6
REMARK VINA RESULT:      -3.7      4.525      5.839
REMARK  1 active torsions:
REMARK  status: ('A' for Active; 'I' for Inactive)
REMARK    1  A    between atoms: C_3  and  C_4 
ROOT
HETATM    1  C   LIG     1      17.298  38.624  22.003  1.00  0.00     0.036 C 
HETATM    2  C   LIG     1      18.641  39.244  21.728  1.00  0.00    -0.035 C 
HETATM    3  C   LIG     1      19.350  39.092  20.594  1.00  0.00    -0.031 C 
ENDROOT
BRANCH   3   4
HETATM    4  C   LIG     1      18.907  38.289  19.398  1.00  0.00     0.022 C 
HETATM    5  C   LIG     1      19.349  36.832  19.512  1.00  0.00     0.009 C 
ENDBRANCH   3   4
TORSDOF 1
ENDMDL
MODEL 7
REMARK VINA RESULT:      -3.7      4.320      5.674
REMARK  1 active torsions:
REMARK  status: ('A' for Active; 'I' for Inactive)
REMARK    1  A    between atoms: C_3  and  C_4 
ROOT
HETATM    1  C   LIG     1      17.025  36.847  21.791  1.00  0.00     0.036 C 
HETATM    2  C   LIG     1      17.776  36.293  20.612  1.00  0.00    -0.035 C 
HETATM    3  C   LIG     1      18.628  36.989  19.836  1.00  0.00    -0.031 C 
ENDROOT
BRANCH   3   4
HETATM    4  C   LIG     1      18.990  38.439  20.032  1.00  0.00     0.022 C 
HETATM    5  C   LIG     1      20.377  38.747  19.475  1.00  0.00     0.009 C 
ENDBRANCH   3   4
TORSDOF 1
ENDMDL
MODEL 8
REMARK VINA RESULT:      -3.6      4.602      5.623
REMARK  1 active torsions:
REMARK  status: ('A' for Active; 'I' for Inactive)
REMARK    1  A    between atoms: C_3  and  C_4 
ROOT
HETATM    1  C   LIG     1      17.613  36.601  20.859  1.00  0.00     0.036 C 
HETATM    2  C   LIG     1      17.788  37.911  21.577  1.00  0.00    -0.035 C 
HETATM    3  C   LIG     1      18.343  39.019  21.049  1.00  0.00    -0.031 C 
ENDROOT
BRANCH   3   4
HETATM    4  C   LIG     1      18.865  39.138  19.640  1.00  0.00     0.022 C 
HETATM    5  C   LIG     1      20.343  38.762  19.561  1.00  0.00     0.009 C 
ENDBRANCH   3   4
TORSDOF 1
ENDMDL
MODEL 9
REMARK VINA RESULT:      -3.6      4.067      5.403
REMARK  1 active torsions:
REMARK  status: ('A' for Active; 'I' for Inactive)
REMARK    1  A    between atoms: C_3  and  C_4 
ROOT
HETATM    1  C   LIG     1      19.103  39.108  20.451  1.00  0.00     0.036 C 
HETATM    2  C   LIG     1      18.165  38.915  21.611  1.00  0.00    -0.035 C 
HETATM    3  C   LIG     1      17.451  37.800  21.857  1.00  0.00    -0.031 C 
ENDROOT
BRANCH   3   4
HETATM    4  C   LIG     1      17.487  36.547  21.019  1.00  0.00     0.022 C 
HETATM    5  C   LIG     1      16.992  35.337  21.807  1.00  0.00     0.009 C 
ENDBRANCH   3   4
TORSDOF 1
ENDMDL
MODEL 10
REMARK VINA RESULT:      -3.6     13.410     14.121
REMARK  1 active torsions:
REMARK  status: ('A' for Active; 'I' for Inactive)
REMARK    1  A    between atoms: C_3  and  C_4 
ROOT
HETATM    1  C   LIG     1      24.143  37.117  12.093  1.00  0.00     0.036 C 
HETATM    2  C   LIG     1      24.015  36.230  13.302  1.00  0.00    -0.035 C 
HETATM    3  C   LIG     1      23.045  35.317  13.496  1.00  0.00    -0.031 C 
ENDROOT
BRANCH   3   4
HETATM    4  C   LIG     1      21.933  35.014  12.523  1.00  0.00     0.022 C 
HETATM    5  C   LIG     1      21.271  33.674  12.834  1.00  0.00     0.009 C 
ENDBRANCH   3   4
TORSDOF 1
ENDMDL
MODEL 11
REMARK VINA RESULT:      -3.6      2.483      3.787
REMARK  1 active torsions:
REMARK  status: ('A' for Active; 'I' for Inactive)
REMARK    1  A    between atoms: C_3  and  C_4 
ROOT
HETATM    1  C   LIG     1      16.080  36.756  22.161  1.00  0.00     0.036 C 
HETATM    2  C   LIG     1      16.660  35.391  22.413  1.00  0.00    -0.035 C 
HETATM    3  C   LIG     1      17.216  34.983  23.569  1.00  0.00    -0.031 C 
ENDROOT
BRANCH   3   4
HETATM    4  C   LIG     1      17.332  35.822  24.816  1.00  0.00     0.022 C 
HETATM    5  C   LIG     1      17.518  34.952  26.057  1.00  0.00     0.009 C 
ENDBRANCH   3   4
TORSDOF 1
ENDMDL
MODEL 12
REMARK VINA RESULT:      -3.5      3.094      3.966
REMARK  1 active torsions:
REMARK  status: ('A' for Active; 'I' for Inactive)
REMARK    1  A    between atoms: C_3  and  C_4 
ROOT
HETATM    1  C   LIG     1      17.048  35.191  23.482  1.00  0.00     0.036 C 
HETATM    2  C   LIG     1      17.047  35.301  21.982  1.00  0.00    -0.035 C 
HETATM    3  C   LIG     1      17.154  36.448  21.286  1.00  0.00    -0.031 C 
ENDROOT
BRANCH   3   4
HETATM    4  C   LIG     1      17.313  37.818  21.895  1.00  0.00     0.022 C 
HETATM    5  C   LIG     1      18.326  38.657  21.121  1.00  0.00     0.009 C 
ENDBRANCH   3   4
TORSDOF 1
ENDMDL
MODEL 13
REMARK VINA RESULT:      -3.5      4.017      5.249
REMARK  1 active torsions:
REMARK  status: ('A' for Active; 'I' for Inactive)
REMARK    1  A    between atoms: C_3  and  C_4 
ROOT
HETATM    1  C   LIG     1      18.905  37.045  19.536  1.00  0.00     0.036 C 
HETATM    2  C   LIG     1      18.800  38.288  20.377  1.00  0.00    -0.035 C 
HETATM    3  C   LIG     1      18.037  38.420  21.479  1.00  0.00    -0.031 C 
ENDROOT
BRANCH   3   4
HETATM    4  C   LIG     1      17.172  37.334  22.068  1.00  0.00     0.022 C 
HETATM    5  C   LIG     1      15.966  37.919  22.797  1.00  0.00     0.009 C 
ENDBRANCH   3   4
TORSDOF 1
ENDMDL
MODEL 14
REMARK VINA RESULT:      -3.5     13.042     13.790
REMARK  1 active torsions:
REMARK  status: ('A' for Active; 'I' for Inactive)
REMARK    1  A    between atoms: C_3  and  C_4 
ROOT
HETATM    1  C   LIG     1      14.978  27.768  13.661  1.00  0.00     0.036 C 
HETATM    2  C   LIG     1      15.392  29.204  13.830  1.00  0.00    -0.035 C 
HETATM    3  C   LIG     1      14.637  30.171  14.385  1.00  0.00    -0.031 C 
ENDROOT
BRANCH   3   4
HETATM    4  C   LIG     1      13.253  29.972  14.949  1.00  0.00     0.022 C 
HETATM    5  C   LIG     1      13.041  30.806  16.210  1.00  0.00     0.009 C 
ENDBRANCH   3   4
TORSDOF 1
ENDMDL
MODEL 15
REMARK VINA RESULT:      -3.4      2.257      3.481
REMARK  1 active torsions:
REMARK  status: ('A' for Active; 'I' for Inactive)
REMARK    1  A    between atoms: C_3  and  C_4 
ROOT
HETATM    1  C   LIG     1      16.944  35.397  22.407  1.00  0.00     0.036 C 
HETATM    2  C   LIG     1      16.147  36.657  22.208  1.00  0.00    -0.035 C 
HETATM    3  C   LIG     1      16.430  37.852  22.761  1.00  0.00    -0.031 C 
ENDROOT
BRANCH   3   4
HETATM    4  C   LIG     1      17.606  38.132  23.661  1.00  0.00     0.022 C 
HETATM    5  C   LIG     1      17.232  37.972  25.133  1.00  0.00     0.009 C 
ENDBRANCH   3   4
TORSDOF 1
ENDMDL
MODEL 16
REMARK VINA RESULT:      -3.4     12.390     12.979
REMARK  1 active torsions:
REMARK  status: ('A' for Active; 'I' for Inactive)
REMARK    1  A    between atoms: C_3  and  C_4 
ROOT
HETATM    1  C   LIG     1      13.056  30.696  16.080  1.00  0.00     0.036 C 
HETATM    2  C   LIG     1      13.583  29.977  14.868  1.00  0.00    -0.035 C 
HETATM    3  C   LIG     1      14.747  30.249  14.247  1.00  0.00    -0.031 C 
ENDROOT
BRANCH   3   4
HETATM    4  C   LIG     1      15.728  31.309  14.675  1.00  0.00     0.022 C 
HETATM    5  C   LIG     1      16.149  32.185  13.497  1.00  0.00     0.009 C 
ENDBRANCH   3   4
TORSDOF 1
ENDMDL
MODEL 17
REMARK VINA RESULT:      -3.4      5.462      7.181
REMARK  1 active torsions:
REMARK  status: ('A' for Active; 'I' for Inactive)
REMARK    1  A    between atoms: C_3  and  C_4 
ROOT
HETATM    1  C   LIG     1      18.357  38.524  21.164  1.00  0.00     0.036 C 
HETATM    2  C   LIG     1      19.608  39.043  20.508  1.00  0.00    -0.035 C 
HETATM    3  C   LIG     1      19.825  39.098  19.181  1.00  0.00    -0.031 C 
ENDROOT
BRANCH   3   4
HETATM    4  C   LIG     1      18.840  38.667  18.124  1.00  0.00     0.022 C 
HETATM    5  C   LIG     1      18.897  39.582  16.903  1.00  0.00     0.009 C 
ENDBRANCH   3   4
TORSDOF 1
ENDMDL
MODEL 18
REMARK VINA RESULT:      -3.3     11.558     12.332
REMARK  1 active torsions:
REMARK  status: ('A' for Active; 'I' for Inactive)
REMARK    1  A    between atoms: C_3  and  C_4 
ROOT
HETATM    1  C   LIG     1      14.710  32.289  17.315  1.00  0.00     0.036 C 
HETATM    2  C   LIG     1      13.682  31.333  16.776  1.00  0.00    -0.035 C 
HETATM    3  C   LIG     1      13.797  30.631  15.632  1.00  0.00    -0.031 C 
ENDROOT
BRANCH   3   4
HETATM    4  C   LIG     1      14.988  30.671  14.709  1.00  0.00     0.022 C 
HETATM    5  C   LIG     1      15.231  29.313  14.056  1.00  0.00     0.009 C 
ENDBRANCH   3   4
TORSDOF 1
ENDMDL
MODEL 19
REMARK VINA RESULT:      -3.3      5.460      6.386
REMARK  1 active torsions:
REMARK  status: ('A' for Active; 'I' for Inactive)
REMARK    1  A    between atoms: C_3  and  C_4 
ROOT
HETATM    1  C   LIG     1      17.061  35.211  22.346  1.00  0.00     0.036 C 
HETATM    2  C   LIG     1      16.668  35.519  20.927  1.00  0.00    -0.035 C 
HETATM    3  C   LIG     1      15.849  34.769  20.167  1.00  0.00    -0.031 C 
ENDROOT
BRANCH   3   4
HETATM    4  C   LIG     1      15.170  33.500  20.617  1.00  0.00     0.022 C 
HETATM    5  C   LIG     1      15.518  32.328  19.703  1.00  0.00     0.009 C 
ENDBRANCH   3   4
TORSDOF 1
ENDMDL
MODEL 20
REMARK VINA RESULT:      -3.2      5.003      5.558
REMARK  1 active torsions:
REMARK  status: ('A' for Active; 'I' for Inactive)
REMARK    1  A    between atoms: C_3  and  C_4 
ROOT
HETATM    1  C   LIG     1      15.548  33.035  20.105  1.00  0.00     0.036 C 
HETATM    2  C   LIG     1      14.950  34.038  21.053  1.00  0.00    -0.035 C 
HETATM    3  C   LIG     1      15.646  34.941  21.770  1.00  0.00    -0.031 C 
ENDROOT
BRANCH   3   4
HETATM    4  C   LIG     1      17.143  35.113  21.727  1.00  0.00     0.022 C 
HETATM    5  C   LIG     1      17.546  36.257  20.799  1.00  0.00     0.009 C 
ENDBRANCH   3   4
TORSDOF 1
ENDMDL
