MODEL 1
REMARK VINA RESULT:      -7.0      0.000      0.000
REMARK  2 active torsions:
REMARK  status: ('A' for Active; 'I' for Inactive)
REMARK       I    between atoms: N_1  and  C_2 
REMARK    1  A    between atoms: C_2  and  C_3 
REMARK    2  A    between atoms: C_8  and  O_9 
ROOT
HETATM    1  C   LIG     1      17.047  36.779  24.283  1.00  0.00     0.064 A 
HETATM    2  C   LIG     1      17.203  35.380  24.324  1.00  0.00     0.020 A 
HETATM    3  C   LIG     1      17.779  34.761  25.436  1.00  0.00     0.001 A 
HETATM    4  C   LIG     1      18.204  35.527  26.523  1.00  0.00     0.003 A 
HETATM    5  C   LIG     1      18.051  36.914  26.501  1.00  0.00     0.037 A 
HETATM    6  C   LIG     1      17.476  37.548  25.389  1.00  0.00     0.081 A 
ENDROOT
BRANCH   1   7
HETATM    7  C   LIG     1      16.422  37.422  23.099  1.00  0.00     0.252 C 
HETATM    8  N   LIG     1      15.224  38.192  23.223  1.00  0.00    -0.366 N 
HETATM    9  H   LIG     1      14.829  38.679  22.388  1.00  0.00     0.159 HD
HETATM   10  H   LIG     1      14.683  38.221  24.115  1.00  0.00     0.159 HD
HETATM   11  O   LIG     1      16.948  37.291  21.961  1.00  0.00    -0.268 OA
ENDBRANCH   1   7
BRANCH   6  12
HETATM   12  O   LIG     1      17.347  38.937  25.378  1.00  0.00    -0.360 OA
HETATM   13  H   LIG     1      16.545  39.392  24.959  1.00  0.00     0.217 HD
ENDBRANCH   6  12
TORSDOF 2
ENDMDL
MODEL 2
REMARK VINA RESULT:      -6.7      1.061      2.187
REMARK  2 active torsions:
REMARK  status: ('A' for Active; 'I' for Inactive)
REMARK       I    between atoms: N_1  and  C_2 
REMARK    1  A    between atoms: C_2  and  C_3 
REMARK    2  A    between atoms: C_8  and  O_9 
ROOT
HETATM    1  C   LIG     1      17.207  37.087  24.448  1.00  0.00     0.064 A 
HETATM    2  C   LIG     1      17.759  37.543  25.661  1.00  0.00     0.020 A 
HETATM    3  C   LIG     1      18.242  36.636  26.608  1.00  0.00     0.001 A 
HETATM    4  C   LIG     1      18.184  35.265  26.357  1.00  0.00     0.003 A 
HETATM    5  C   LIG     1      17.646  34.796  25.158  1.00  0.00     0.037 A 
HETATM    6  C   LIG     1      17.155  35.697  24.200  1.00  0.00     0.081 A 
ENDROOT
BRANCH   1   7
HETATM    7  C   LIG     1      16.709  38.064  23.446  1.00  0.00     0.252 C 
HETATM    8  N   LIG     1      15.325  38.125  23.096  1.00  0.00    -0.366 N 
HETATM    9  H   LIG     1      14.987  38.853  22.429  1.00  0.00     0.159 HD
HETATM   10  H   LIG     1      14.645  37.407  23.432  1.00  0.00     0.159 HD
HETATM   11  O   LIG     1      17.514  38.857  22.888  1.00  0.00    -0.268 OA
ENDBRANCH   1   7
BRANCH   6  12
HETATM   12  O   LIG     1      16.606  35.209  23.014  1.00  0.00    -0.360 OA
HETATM   13  H   LIG     1      17.016  35.421  22.112  1.00  0.00     0.217 HD
ENDBRANCH   6  12
TORSDOF 2
ENDMDL
MODEL 3
REMARK VINA RESULT:      -6.4      2.878      4.728
REMARK  2 active torsions:
REMARK  status: ('A' for Active; 'I' for Inactive)
REMARK       I    between atoms: N_1  and  C_2 
REMARK    1  A    between atoms: C_2  and  C_3 
REMARK    2  A    between atoms: C_8  and  O_9 
ROOT
HETATM    1  C   LIG     1      17.549  38.161  21.915  1.00  0.00     0.064 A 
HETATM    2  C   LIG     1      18.370  39.237  21.526  1.00  0.00     0.020 A 
HETATM    3  C   LIG     1      19.225  39.119  20.427  1.00  0.00     0.001 A 
HETATM    4  C   LIG     1      19.269  37.929  19.699  1.00  0.00     0.003 A 
HETATM    5  C   LIG     1      18.457  36.855  20.067  1.00  0.00     0.037 A 
HETATM    6  C   LIG     1      17.598  36.960  21.170  1.00  0.00     0.081 A 
ENDROOT
BRANCH   1   7
HETATM    7  C   LIG     1      16.637  38.306  23.078  1.00  0.00     0.252 C 
HETATM    8  N   LIG     1      15.234  38.062  22.952  1.00  0.00    -0.366 N 
HETATM    9  H   LIG     1      14.618  38.119  23.793  1.00  0.00     0.159 HD
HETATM   10  H   LIG     1      14.789  37.904  22.022  1.00  0.00     0.159 HD
HETATM   11  O   LIG     1      17.098  38.650  24.200  1.00  0.00    -0.268 OA
ENDBRANCH   1   7
BRANCH   6  12
HETATM   12  O   LIG     1      16.805  35.871  21.533  1.00  0.00    -0.360 OA
HETATM   13  H   LIG     1      17.209  34.964  21.737  1.00  0.00     0.217 HD
ENDBRANCH   6  12
TORSDOF 2
ENDMDL
MODEL 4
REMARK VINA RESULT:      -6.2      9.093     10.497
REMARK  2 active torsions:
REMARK  status: ('A' for Active; 'I' for Inactive)
REMARK       I    between atoms: N_1  and  C_2 
REMARK    1  A    between atoms: C_2  and  C_3 
REMARK    2  A    between atoms: C_8  and  O_9 
ROOT
HETATM    1  C   LIG     1      14.916  32.304  16.173  1.00  0.00     0.064 A 
HETATM    2  C   LIG     1      15.726  31.889  15.098  1.00  0.00     0.020 A 
HETATM    3  C   LIG     1      15.372  30.777  14.329  1.00  0.00     0.001 A 
HETATM    4  C   LIG     1      14.206  30.067  14.619  1.00  0.00     0.003 A 
HETATM    5  C   LIG     1      13.389  30.469  15.678  1.00  0.00     0.037 A 
HETATM    6  C   LIG     1      13.735  31.582  16.459  1.00  0.00     0.081 A 
ENDROOT
BRANCH   1   7
HETATM    7  C   LIG     1      15.299  33.495  16.973  1.00  0.00     0.252 C 
HETATM    8  N   LIG     1      15.211  33.487  18.400  1.00  0.00    -0.366 N 
HETATM    9  H   LIG     1      15.534  34.316  18.947  1.00  0.00     0.159 HD
HETATM   10  H   LIG     1      14.758  32.701  18.915  1.00  0.00     0.159 HD
HETATM   11  O   LIG     1      15.709  34.537  16.394  1.00  0.00    -0.268 OA
ENDBRANCH   1   7
BRANCH   6  12
HETATM   12  O   LIG     1      12.915  31.959  17.522  1.00  0.00    -0.360 OA
HETATM   13  H   LIG     1      12.056  31.465  17.732  1.00  0.00     0.217 HD
ENDBRANCH   6  12
TORSDOF 2
ENDMDL
MODEL 5
REMARK VINA RESULT:      -6.1      2.267      3.783
REMARK  2 active torsions:
REMARK  status: ('A' for Active; 'I' for Inactive)
REMARK       I    between atoms: N_1  and  C_2 
REMARK    1  A    between atoms: C_2  and  C_3 
REMARK    2  A    between atoms: C_8  and  O_9 
ROOT
HETATM    1  C   LIG     1      17.388  37.011  24.103  1.00  0.00     0.064 A 
HETATM    2  C   LIG     1      17.345  37.820  22.952  1.00  0.00     0.020 A 
HETATM    3  C   LIG     1      17.111  37.257  21.695  1.00  0.00     0.001 A 
HETATM    4  C   LIG     1      16.913  35.882  21.569  1.00  0.00     0.003 A 
HETATM    5  C   LIG     1      16.946  35.065  22.701  1.00  0.00     0.037 A 
HETATM    6  C   LIG     1      17.183  35.619  23.969  1.00  0.00     0.081 A 
ENDROOT
BRANCH   1   7
HETATM    7  C   LIG     1      17.625  37.626  25.434  1.00  0.00     0.252 C 
HETATM    8  N   LIG     1      18.650  37.138  26.303  1.00  0.00    -0.366 N 
HETATM    9  H   LIG     1      18.835  37.617  27.211  1.00  0.00     0.159 HD
HETATM   10  H   LIG     1      19.175  36.261  26.090  1.00  0.00     0.159 HD
HETATM   11  O   LIG     1      16.914  38.595  25.815  1.00  0.00    -0.268 OA
ENDBRANCH   1   7
BRANCH   6  12
HETATM   12  O   LIG     1      17.229  34.786  25.087  1.00  0.00    -0.360 OA
HETATM   13  H   LIG     1      16.563  34.877  25.845  1.00  0.00     0.217 HD
ENDBRANCH   6  12
TORSDOF 2
ENDMDL
MODEL 6
REMARK VINA RESULT:      -6.0      2.125      3.474
REMARK  2 active torsions:
REMARK  status: ('A' for Active; 'I' for Inactive)
REMARK       I    between atoms: N_1  and  C_2 
REMARK    1  A    between atoms: C_2  and  C_3 
REMARK    2  A    between atoms: C_8  and  O_9 
ROOT
HETATM    1  C   LIG     1      17.232  36.144  24.421  1.00  0.00     0.064 A 
HETATM    2  C   LIG     1      17.159  35.122  23.455  1.00  0.00     0.020 A 
HETATM    3  C   LIG     1      16.797  35.413  22.137  1.00  0.00     0.001 A 
HETATM    4  C   LIG     1      16.506  36.726  21.764  1.00  0.00     0.003 A 
HETATM    5  C   LIG     1      16.580  37.752  22.707  1.00  0.00     0.037 A 
HETATM    6  C   LIG     1      16.940  37.472  24.034  1.00  0.00     0.081 A 
ENDROOT
BRANCH   1   7
HETATM    7  C   LIG     1      17.632  35.822  25.814  1.00  0.00     0.252 C 
HETATM    8  N   LIG     1      17.047  34.721  26.515  1.00  0.00    -0.366 N 
HETATM    9  H   LIG     1      17.379  34.479  27.475  1.00  0.00     0.159 HD
HETATM   10  H   LIG     1      16.236  34.194  26.124  1.00  0.00     0.159 HD
HETATM   11  O   LIG     1      18.500  36.524  26.399  1.00  0.00    -0.268 OA
ENDBRANCH   1   7
BRANCH   6  12
HETATM   12  O   LIG     1      16.993  38.509  24.967  1.00  0.00    -0.360 OA
HETATM   13  H   LIG     1      17.327  38.357  25.911  1.00  0.00     0.217 HD
ENDBRANCH   6  12
TORSDOF 2
ENDMDL
MODEL 7
REMARK VINA RESULT:      -5.9      8.917     10.405
REMARK  2 active torsions:
REMARK  status: ('A' for Active; 'I' for Inactive)
REMARK       I    between atoms: N_1  and  C_2 
REMARK    1  A    between atoms: C_2  and  C_3 
REMARK    2  A    between atoms: C_8  and  O_9 
ROOT
HETATM    1  C   LIG     1      14.711  32.438  16.424  1.00  0.00     0.064 A 
HETATM    2  C   LIG     1      13.496  31.854  16.834  1.00  0.00     0.020 A 
HETATM    3  C   LIG     1      12.990  30.729  16.178  1.00  0.00     0.001 A 
HETATM    4  C   LIG     1      13.689  30.169  15.108  1.00  0.00     0.003 A 
HETATM    5  C   LIG     1      14.897  30.731  14.692  1.00  0.00     0.037 A 
HETATM    6  C   LIG     1      15.414  31.863  15.341  1.00  0.00     0.081 A 
ENDROOT
BRANCH   1   7
HETATM    7  C   LIG     1      15.242  33.626  17.139  1.00  0.00     0.252 C 
HETATM    8  N   LIG     1      15.252  33.687  18.567  1.00  0.00    -0.366 N 
HETATM    9  H   LIG     1      15.677  34.508  19.051  1.00  0.00     0.159 HD
HETATM   10  H   LIG     1      14.772  32.964  19.147  1.00  0.00     0.159 HD
HETATM   11  O   LIG     1      15.695  34.604  16.484  1.00  0.00    -0.268 OA
ENDBRANCH   1   7
BRANCH   6  12
HETATM   12  O   LIG     1      16.615  32.420  14.901  1.00  0.00    -0.360 OA
HETATM   13  H   LIG     1      17.463  31.871  14.834  1.00  0.00     0.217 HD
ENDBRANCH   6  12
TORSDOF 2
ENDMDL
MODEL 8
REMARK VINA RESULT:      -5.9     10.492     11.745
REMARK  2 active torsions:
REMARK  status: ('A' for Active; 'I' for Inactive)
REMARK       I    between atoms: N_1  and  C_2 
REMARK    1  A    between atoms: C_2  and  C_3 
REMARK    2  A    between atoms: C_8  and  O_9 
ROOT
HETATM    1  C   LIG     1      14.313  30.582  15.146  1.00  0.00     0.064 A 
HETATM    2  C   LIG     1      15.430  31.384  14.843  1.00  0.00     0.020 A 
HETATM    3  C   LIG     1      15.722  32.516  15.609  1.00  0.00     0.001 A 
HETATM    4  C   LIG     1      14.908  32.860  16.689  1.00  0.00     0.003 A 
HETATM    5  C   LIG     1      13.800  32.072  17.007  1.00  0.00     0.037 A 
HETATM    6  C   LIG     1      13.495  30.935  16.244  1.00  0.00     0.081 A 
ENDROOT
BRANCH   1   7
HETATM    7  C   LIG     1      14.022  29.376  14.331  1.00  0.00     0.252 C 
HETATM    8  N   LIG     1      12.678  28.984  14.042  1.00  0.00    -0.366 N 
HETATM    9  H   LIG     1      12.496  28.163  13.424  1.00  0.00     0.159 HD
HETATM   10  H   LIG     1      11.864  29.451  14.498  1.00  0.00     0.159 HD
HETATM   11  O   LIG     1      14.971  28.677  13.880  1.00  0.00    -0.268 OA
ENDBRANCH   1   7
BRANCH   6  12
HETATM   12  O   LIG     1      12.374  30.169  16.566  1.00  0.00    -0.360 OA
HETATM   13  H   LIG     1      12.444  29.174  16.743  1.00  0.00     0.217 HD
ENDBRANCH   6  12
TORSDOF 2
ENDMDL
MODEL 9
REMARK VINA RESULT:      -5.8      9.484     10.350
REMARK  2 active torsions:
REMARK  status: ('A' for Active; 'I' for Inactive)
REMARK       I    between atoms: N_1  and  C_2 
REMARK    1  A    between atoms: C_2  and  C_3 
REMARK    2  A    between atoms: C_8  and  O_9 
ROOT
HETATM    1  C   LIG     1      15.426  32.378  15.739  1.00  0.00     0.064 A 
HETATM    2  C   LIG     1      15.276  31.300  14.844  1.00  0.00     0.020 A 
HETATM    3  C   LIG     1      14.202  30.416  14.969  1.00  0.00     0.001 A 
HETATM    4  C   LIG     1      13.260  30.596  15.983  1.00  0.00     0.003 A 
HETATM    5  C   LIG     1      13.390  31.663  16.874  1.00  0.00     0.037 A 
HETATM    6  C   LIG     1      14.466  32.556  16.761  1.00  0.00     0.081 A 
ENDROOT
BRANCH   1   7
HETATM    7  C   LIG     1      16.566  33.317  15.586  1.00  0.00     0.252 C 
HETATM    8  N   LIG     1      17.844  32.862  15.133  1.00  0.00    -0.366 N 
HETATM    9  H   LIG     1      18.617  33.546  14.982  1.00  0.00     0.159 HD
HETATM   10  H   LIG     1      18.053  31.845  15.022  1.00  0.00     0.159 HD
HETATM   11  O   LIG     1      16.416  34.539  15.857  1.00  0.00    -0.268 OA
ENDBRANCH   1   7
BRANCH   6  12
HETATM   12  O   LIG     1      14.588  33.607  17.671  1.00  0.00    -0.360 OA
HETATM   13  H   LIG     1      15.483  33.867  18.066  1.00  0.00     0.217 HD
ENDBRANCH   6  12
TORSDOF 2
ENDMDL
MODEL 10
REMARK VINA RESULT:      -5.7     10.558     11.816
REMARK  2 active torsions:
REMARK  status: ('A' for Active; 'I' for Inactive)
REMARK       I    between atoms: N_1  and  C_2 
REMARK    1  A    between atoms: C_2  and  C_3 
REMARK    2  A    between atoms: C_8  and  O_9 
ROOT
HETATM    1  C   LIG     1      14.289  30.544  15.159  1.00  0.00     0.064 A 
HETATM    2  C   LIG     1      13.423  30.810  16.237  1.00  0.00     0.020 A 
HETATM    3  C   LIG     1      13.624  31.926  17.053  1.00  0.00     0.001 A 
HETATM    4  C   LIG     1      14.688  32.794  16.803  1.00  0.00     0.003 A 
HETATM    5  C   LIG     1      15.552  32.549  15.734  1.00  0.00     0.037 A 
HETATM    6  C   LIG     1      15.362  31.429  14.910  1.00  0.00     0.081 A 
ENDROOT
BRANCH   1   7
HETATM    7  C   LIG     1      14.054  29.360  14.293  1.00  0.00     0.252 C 
HETATM    8  N   LIG     1      12.729  28.923  13.981  1.00  0.00    -0.366 N 
HETATM    9  H   LIG     1      12.585  28.121  13.329  1.00  0.00     0.159 HD
HETATM   10  H   LIG     1      11.894  29.335  14.451  1.00  0.00     0.159 HD
HETATM   11  O   LIG     1      15.034  28.722  13.820  1.00  0.00    -0.268 OA
ENDBRANCH   1   7
BRANCH   6  12
HETATM   12  O   LIG     1      16.245  31.191  13.856  1.00  0.00    -0.360 OA
HETATM   13  H   LIG     1      15.922  31.112  12.899  1.00  0.00     0.217 HD
ENDBRANCH   6  12
TORSDOF 2
ENDMDL
MODEL 11
REMARK VINA RESULT:      -5.7      9.657     10.913
REMARK  2 active torsions:
REMARK  status: ('A' for Active; 'I' for Inactive)
REMARK       I    between atoms: N_1  and  C_2 
REMARK    1  A    between atoms: C_2  and  C_3 
REMARK    2  A    between atoms: C_8  and  O_9 
ROOT
HETATM    1  C   LIG     1      14.401  31.530  15.966  1.00  0.00     0.064 A 
HETATM    2  C   LIG     1      14.166  30.487  15.049  1.00  0.00     0.020 A 
HETATM    3  C   LIG     1      14.952  30.360  13.900  1.00  0.00     0.001 A 
HETATM    4  C   LIG     1      15.983  31.266  13.653  1.00  0.00     0.003 A 
HETATM    5  C   LIG     1      16.234  32.302  14.555  1.00  0.00     0.037 A 
HETATM    6  C   LIG     1      15.450  32.442  15.710  1.00  0.00     0.081 A 
ENDROOT
BRANCH   1   7
HETATM    7  C   LIG     1      13.566  31.645  17.189  1.00  0.00     0.252 C 
HETATM    8  N   LIG     1      14.157  31.875  18.470  1.00  0.00    -0.366 N 
HETATM    9  H   LIG     1      13.550  32.005  19.308  1.00  0.00     0.159 HD
HETATM   10  H   LIG     1      15.191  31.840  18.607  1.00  0.00     0.159 HD
HETATM   11  O   LIG     1      12.312  31.538  17.107  1.00  0.00    -0.268 OA
ENDBRANCH   1   7
BRANCH   6  12
HETATM   12  O   LIG     1      15.705  33.492  16.592  1.00  0.00    -0.360 OA
HETATM   13  H   LIG     1      16.634  33.669  16.954  1.00  0.00     0.217 HD
ENDBRANCH   6  12
TORSDOF 2
ENDMDL
MODEL 12
REMARK VINA RESULT:      -5.7      9.745     11.078
REMARK  2 active torsions:
REMARK  status: ('A' for Active; 'I' for Inactive)
REMARK       I    between atoms: N_1  and  C_2 
REMARK    1  A    between atoms: C_2  and  C_3 
REMARK    2  A    between atoms: C_8  and  O_9 
ROOT
HETATM    1  C   LIG     1      15.368  32.233  15.630  1.00  0.00     0.064 A 
HETATM    2  C   LIG     1      14.421  32.192  16.672  1.00  0.00     0.020 A 
HETATM    3  C   LIG     1      13.411  31.226  16.678  1.00  0.00     0.001 A 
HETATM    4  C   LIG     1      13.335  30.286  15.650  1.00  0.00     0.003 A 
HETATM    5  C   LIG     1      14.270  30.308  14.613  1.00  0.00     0.037 A 
HETATM    6  C   LIG     1      15.286  31.275  14.594  1.00  0.00     0.081 A 
ENDROOT
BRANCH   1   7
HETATM    7  C   LIG     1      16.443  33.257  15.644  1.00  0.00     0.252 C 
HETATM    8  N   LIG     1      17.779  32.932  15.254  1.00  0.00    -0.366 N 
HETATM    9  H   LIG     1      18.508  33.679  15.221  1.00  0.00     0.159 HD
HETATM   10  H   LIG     1      18.071  31.947  15.075  1.00  0.00     0.159 HD
HETATM   11  O   LIG     1      16.183  34.437  16.004  1.00  0.00    -0.268 OA
ENDBRANCH   1   7
BRANCH   6  12
HETATM   12  O   LIG     1      16.202  31.291  13.541  1.00  0.00    -0.360 OA
HETATM   13  H   LIG     1      17.071  30.773  13.585  1.00  0.00     0.217 HD
ENDBRANCH   6  12
TORSDOF 2
ENDMDL
MODEL 13
REMARK VINA RESULT:      -5.6     10.122     11.563
REMARK  2 active torsions:
REMARK  status: ('A' for Active; 'I' for Inactive)
REMARK       I    between atoms: N_1  and  C_2 
REMARK    1  A    between atoms: C_2  and  C_3 
REMARK    2  A    between atoms: C_8  and  O_9 
ROOT
HETATM    1  C   LIG     1      14.338  31.395  15.921  1.00  0.00     0.064 A 
HETATM    2  C   LIG     1      15.448  32.238  15.721  1.00  0.00     0.020 A 
HETATM    3  C   LIG     1      16.227  32.126  14.566  1.00  0.00     0.001 A 
HETATM    4  C   LIG     1      15.908  31.176  13.595  1.00  0.00     0.003 A 
HETATM    5  C   LIG     1      14.807  30.336  13.775  1.00  0.00     0.037 A 
HETATM    6  C   LIG     1      14.019  30.437  14.931  1.00  0.00     0.081 A 
ENDROOT
BRANCH   1   7
HETATM    7  C   LIG     1      13.512  31.534  17.147  1.00  0.00     0.252 C 
HETATM    8  N   LIG     1      14.115  31.605  18.441  1.00  0.00    -0.366 N 
HETATM    9  H   LIG     1      13.520  31.756  19.286  1.00  0.00     0.159 HD
HETATM   10  H   LIG     1      15.135  31.432  18.579  1.00  0.00     0.159 HD
HETATM   11  O   LIG     1      12.255  31.592  17.056  1.00  0.00    -0.268 OA
ENDBRANCH   1   7
BRANCH   6  12
HETATM   12  O   LIG     1      12.933  29.579  15.101  1.00  0.00    -0.360 OA
HETATM   13  H   LIG     1      12.517  29.422  16.012  1.00  0.00     0.217 HD
ENDBRANCH   6  12
TORSDOF 2
ENDMDL
MODEL 14
REMARK VINA RESULT:      -5.6      3.593      4.551
REMARK  2 active torsions:
REMARK  status: ('A' for Active; 'I' for Inactive)
REMARK       I    between atoms: N_1  and  C_2 
REMARK    1  A    between atoms: C_2  and  C_3 
REMARK    2  A    between atoms: C_8  and  O_9 
ROOT
HETATM    1  C   LIG     1      18.125  38.128  21.208  1.00  0.00     0.064 A 
HETATM    2  C   LIG     1      17.990  38.968  22.330  1.00  0.00     0.020 A 
HETATM    3  C   LIG     1      17.205  38.580  23.419  1.00  0.00     0.001 A 
HETATM    4  C   LIG     1      16.549  37.349  23.406  1.00  0.00     0.003 A 
HETATM    5  C   LIG     1      16.677  36.501  22.304  1.00  0.00     0.037 A 
HETATM    6  C   LIG     1      17.459  36.881  21.203  1.00  0.00     0.081 A 
ENDROOT
BRANCH   1   7
HETATM    7  C   LIG     1      18.973  38.549  20.064  1.00  0.00     0.252 C 
HETATM    8  N   LIG     1      19.839  37.622  19.405  1.00  0.00    -0.366 N 
HETATM    9  H   LIG     1      20.388  37.925  18.570  1.00  0.00     0.159 HD
HETATM   10  H   LIG     1      20.002  36.663  19.783  1.00  0.00     0.159 HD
HETATM   11  O   LIG     1      18.936  39.742  19.658  1.00  0.00    -0.268 OA
ENDBRANCH   1   7
BRANCH   6  12
HETATM   12  O   LIG     1      17.563  36.028  20.104  1.00  0.00    -0.360 OA
HETATM   13  H   LIG     1      18.422  35.946  19.574  1.00  0.00     0.217 HD
ENDBRANCH   6  12
TORSDOF 2
ENDMDL
MODEL 15
REMARK VINA RESULT:      -5.3      2.487      4.061
REMARK  2 active torsions:
REMARK  status: ('A' for Active; 'I' for Inactive)
REMARK       I    between atoms: N_1  and  C_2 
REMARK    1  A    between atoms: C_2  and  C_3 
REMARK    2  A    between atoms: C_8  and  O_9 
ROOT
HETATM    1  C   LIG     1      17.391  36.764  24.585  1.00  0.00     0.064 A 
HETATM    2  C   LIG     1      17.449  38.167  24.699  1.00  0.00     0.020 A 
HETATM    3  C   LIG     1      17.202  38.982  23.591  1.00  0.00     0.001 A 
HETATM    4  C   LIG     1      16.889  38.410  22.357  1.00  0.00     0.003 A 
HETATM    5  C   LIG     1      16.821  37.022  22.228  1.00  0.00     0.037 A 
HETATM    6  C   LIG     1      17.070  36.193  23.332  1.00  0.00     0.081 A 
ENDROOT
BRANCH   1   7
HETATM    7  C   LIG     1      17.643  35.912  25.774  1.00  0.00     0.252 C 
HETATM    8  N   LIG     1      18.520  36.341  26.819  1.00  0.00    -0.366 N 
HETATM    9  H   LIG     1      18.643  35.751  27.671  1.00  0.00     0.159 HD
HETATM   10  H   LIG     1      19.106  37.198  26.722  1.00  0.00     0.159 HD
HETATM   11  O   LIG     1      17.080  34.788  25.874  1.00  0.00    -0.268 OA
ENDBRANCH   1   7
BRANCH   6  12
HETATM   12  O   LIG     1      17.013  34.807  23.180  1.00  0.00    -0.360 OA
HETATM   13  H   LIG     1      16.812  34.195  23.962  1.00  0.00     0.217 HD
ENDBRANCH   6  12
TORSDOF 2
ENDMDL
MODEL 16
REMARK VINA RESULT:      -5.1     10.294     11.676
REMARK  2 active torsions:
REMARK  status: ('A' for Active; 'I' for Inactive)
REMARK       I    between atoms: N_1  and  C_2 
REMARK    1  A    between atoms: C_2  and  C_3 
REMARK    2  A    between atoms: C_8  and  O_9 
ROOT
HETATM    1  C   LIG     1      14.749  31.439  15.521  1.00  0.00     0.064 A 
HETATM    2  C   LIG     1      15.451  32.547  16.035  1.00  0.00     0.020 A 
HETATM    3  C   LIG     1      16.464  33.156  15.290  1.00  0.00     0.001 A 
HETATM    4  C   LIG     1      16.786  32.674  14.021  1.00  0.00     0.003 A 
HETATM    5  C   LIG     1      16.096  31.581  13.493  1.00  0.00     0.037 A 
HETATM    6  C   LIG     1      15.080  30.959  14.233  1.00  0.00     0.081 A 
ENDROOT
BRANCH   1   7
HETATM    7  C   LIG     1      13.667  30.810  16.320  1.00  0.00     0.252 C 
HETATM    8  N   LIG     1      12.516  30.244  15.689  1.00  0.00    -0.366 N 
HETATM    9  H   LIG     1      11.792  29.760  16.264  1.00  0.00     0.159 HD
HETATM   10  H   LIG     1      12.336  30.367  14.669  1.00  0.00     0.159 HD
HETATM   11  O   LIG     1      13.755  30.770  17.577  1.00  0.00    -0.268 OA
ENDBRANCH   1   7
BRANCH   6  12
HETATM   12  O   LIG     1      14.411  29.858  13.696  1.00  0.00    -0.360 OA
HETATM   13  H   LIG     1      13.499  29.574  14.032  1.00  0.00     0.217 HD
ENDBRANCH   6  12
TORSDOF 2
ENDMDL
MODEL 17
REMARK VINA RESULT:      -5.0      9.858     11.038
REMARK  2 active torsions:
REMARK  status: ('A' for Active; 'I' for Inactive)
REMARK       I    between atoms: N_1  and  C_2 
REMARK    1  A    between atoms: C_2  and  C_3 
REMARK    2  A    between atoms: C_8  and  O_9 
ROOT
HETATM    1  C   LIG     1      14.321  31.267  15.585  1.00  0.00     0.064 A 
HETATM    2  C   LIG     1      15.184  31.055  14.493  1.00  0.00     0.020 A 
HETATM    3  C   LIG     1      16.304  31.868  14.303  1.00  0.00     0.001 A 
HETATM    4  C   LIG     1      16.581  32.900  15.201  1.00  0.00     0.003 A 
HETATM    5  C   LIG     1      15.740  33.120  16.293  1.00  0.00     0.037 A 
HETATM    6  C   LIG     1      14.610  32.312  16.492  1.00  0.00     0.081 A 
ENDROOT
BRANCH   1   7
HETATM    7  C   LIG     1      13.141  30.387  15.781  1.00  0.00     0.252 C 
HETATM    8  N   LIG     1      12.661  29.549  14.727  1.00  0.00    -0.366 N 
HETATM    9  H   LIG     1      11.863  28.899  14.901  1.00  0.00     0.159 HD
HETATM   10  H   LIG     1      13.037  29.622  13.757  1.00  0.00     0.159 HD
HETATM   11  O   LIG     1      12.545  30.371  16.892  1.00  0.00    -0.268 OA
ENDBRANCH   1   7
BRANCH   6  12
HETATM   12  O   LIG     1      13.772  32.557  17.580  1.00  0.00    -0.360 OA
HETATM   13  H   LIG     1      12.978  31.962  17.784  1.00  0.00     0.217 HD
ENDBRANCH   6  12
TORSDOF 2
ENDMDL
MODEL 18
REMARK VINA RESULT:      -4.6      6.567      8.058
REMARK  2 active torsions:
REMARK  status: ('A' for Active; 'I' for Inactive)
REMARK       I    between atoms: N_1  and  C_2 
REMARK    1  A    between atoms: C_2  and  C_3 
REMARK    2  A    between atoms: C_8  and  O_9 
ROOT
HETATM    1  C   LIG     1      15.021  32.990  18.974  1.00  0.00     0.064 A 
HETATM    2  C   LIG     1      14.438  31.716  18.836  1.00  0.00     0.020 A 
HETATM    3  C   LIG     1      14.177  31.186  17.570  1.00  0.00     0.001 A 
HETATM    4  C   LIG     1      14.499  31.915  16.425  1.00  0.00     0.003 A 
HETATM    5  C   LIG     1      15.084  33.178  16.543  1.00  0.00     0.037 A 
HETATM    6  C   LIG     1      15.347  33.722  17.809  1.00  0.00     0.081 A 
ENDROOT
BRANCH   1   7
HETATM    7  C   LIG     1      15.304  33.535  20.326  1.00  0.00     0.252 C 
HETATM    8  N   LIG     1      14.322  33.485  21.364  1.00  0.00    -0.366 N 
HETATM    9  H   LIG     1      14.558  33.826  22.322  1.00  0.00     0.159 HD
HETATM   10  H   LIG     1      13.340  33.187  21.172  1.00  0.00     0.159 HD
HETATM   11  O   LIG     1      16.426  34.053  20.574  1.00  0.00    -0.268 OA
ENDBRANCH   1   7
BRANCH   6  12
HETATM   12  O   LIG     1      15.918  34.992  17.908  1.00  0.00    -0.360 OA
HETATM   13  H   LIG     1      15.348  35.824  18.000  1.00  0.00     0.217 HD
ENDBRANCH   6  12
TORSDOF 2
ENDMDL
MODEL 19
REMARK VINA RESULT:      -4.4      9.996     11.282
REMARK  2 active torsions:
REMARK  status: ('A' for Active; 'I' for Inactive)
REMARK       I    between atoms: N_1  and  C_2 
REMARK    1  A    between atoms: C_2  and  C_3 
REMARK    2  A    between atoms: C_8  and  O_9 
ROOT
HETATM    1  C   LIG     1      15.592  31.760  14.760  1.00  0.00     0.064 A 
HETATM    2  C   LIG     1      16.002  31.852  13.416  1.00  0.00     0.020 A 
HETATM    3  C   LIG     1      16.972  32.780  13.029  1.00  0.00     0.001 A 
HETATM    4  C   LIG     1      17.549  33.626  13.977  1.00  0.00     0.003 A 
HETATM    5  C   LIG     1      17.159  33.544  15.315  1.00  0.00     0.037 A 
HETATM    6  C   LIG     1      16.184  32.618  15.715  1.00  0.00     0.081 A 
ENDROOT
BRANCH   1   7
HETATM    7  C   LIG     1      14.569  30.760  15.158  1.00  0.00     0.252 C 
HETATM    8  N   LIG     1      13.597  31.055  16.163  1.00  0.00    -0.366 N 
HETATM    9  H   LIG     1      12.855  30.358  16.391  1.00  0.00     0.159 HD
HETATM   10  H   LIG     1      13.653  31.925  16.738  1.00  0.00     0.159 HD
HETATM   11  O   LIG     1      14.549  29.627  14.605  1.00  0.00    -0.268 OA
ENDBRANCH   1   7
BRANCH   6  12
HETATM   12  O   LIG     1      15.795  32.561  17.054  1.00  0.00    -0.360 OA
HETATM   13  H   LIG     1      15.954  31.736  17.619  1.00  0.00     0.217 HD
ENDBRANCH   6  12
TORSDOF 2
ENDMDL
