REMARK  2 active torsions:
REMARK  status: ('A' for Active; 'I' for Inactive)
REMARK       I    between atoms: N_1  and  C_2 
REMARK    1  A    between atoms: C_2  and  C_3 
REMARK    2  A    between atoms: C_8  and  O_9 
ROOT
HETATM    1  C   LIG     1      -0.399   0.100   0.209  1.00  0.00     0.064 A 
HETATM    2  C   LIG     1      -0.040  -1.261   0.159  1.00  0.00     0.020 A 
HETATM    3  C   LIG     1       1.257  -1.642  -0.194  1.00  0.00     0.001 A 
HETATM    4  C   LIG     1       2.214  -0.673  -0.497  1.00  0.00     0.003 A 
HETATM    5  C   LIG     1       1.877   0.681  -0.446  1.00  0.00     0.037 A 
HETATM    6  C   LIG     1       0.577   1.076  -0.096  1.00  0.00     0.081 A 
ENDROOT
BRANCH   1   7
HETATM    7  C   LIG     1      -1.778   0.490   0.598  1.00  0.00     0.252 C 
HETATM    8  N   LIG     1      -2.893  -0.361   0.322  1.00  0.00    -0.366 N 
HETATM    9  H   LIG     1      -3.847  -0.093   0.650  1.00  0.00     0.159 HD
HETATM   10  H   LIG     1      -2.795  -1.214  -0.271  1.00  0.00     0.159 HD
HETATM   11  O   LIG     1      -1.980   1.589   1.182  1.00  0.00    -0.268 OA
ENDBRANCH   1   7
BRANCH   6  12
HETATM   12  O   LIG     1       0.254   2.433  -0.066  1.00  0.00    -0.360 OA
HETATM   13  H   LIG     1       0.938   3.147  -0.286  1.00  0.00     0.217 HD
ENDBRANCH   6  12
TORSDOF 2
