REMARK  0 active torsions:
REMARK  status: ('A' for Active; 'I' for Inactive)
ROOT
HETATM    1  O   LIG     1       0.553   2.243  -0.567  1.00  0.00    -0.267 OA
HETATM    2  C   LIG     1      -0.026   1.168  -0.250  1.00  0.00     0.256 A 
HETATM    3  C   LIG     1       0.714  -0.013  -0.077  1.00  0.00     0.022 A 
HETATM    4  C   LIG     1       2.203  -0.036  -0.276  1.00  0.00     0.056 C 
HETATM    5  C   LIG     1       0.018  -1.179   0.261  1.00  0.00     0.105 A 
HETATM    6  N   LIG     1      -1.331  -1.148   0.425  1.00  0.00    -0.318 N 
HETATM    7  C   LIG     1      -2.027   0.009   0.259  1.00  0.00     0.326 A 
HETATM    8  N   LIG     1      -1.376   1.155  -0.076  1.00  0.00    -0.275 N 
HETATM    9  O   LIG     1      -3.278   0.018   0.416  1.00  0.00    -0.247 OA
HETATM   10  H   LIG     1      -1.834  -2.028   0.680  1.00  0.00     0.170 HD
HETATM   11  H   LIG     1      -1.920   2.039  -0.204  1.00  0.00     0.173 HD
ENDROOT
TORSDOF 0
