MODEL 1
REMARK VINA RESULT:      -6.0      0.000      0.000
REMARK  0 active torsions:
REMARK  status: ('A' for Active; 'I' for Inactive)
ROOT
HETATM    1  O   LIG     1      17.115  34.889  23.501  1.00  0.00    -0.267 OA
HETATM    2  C   LIG     1      17.196  36.013  24.068  1.00  0.00     0.256 A 
HETATM    3  C   LIG     1      17.629  36.106  25.401  1.00  0.00     0.022 A 
HETATM    4  C   LIG     1      17.994  34.880  26.189  1.00  0.00     0.056 C 
HETATM    5  C   LIG     1      17.686  37.377  25.984  1.00  0.00     0.105 A 
HETATM    6  N   LIG     1      17.341  38.477  25.264  1.00  0.00    -0.318 N 
HETATM    7  C   LIG     1      16.930  38.364  23.972  1.00  0.00     0.326 A 
HETATM    8  N   LIG     1      16.859  37.140  23.383  1.00  0.00    -0.275 N 
HETATM    9  O   LIG     1      16.614  39.396  23.320  1.00  0.00    -0.247 OA
HETATM   10  H   LIG     1      17.392  39.418  25.715  1.00  0.00     0.170 HD
HETATM   11  H   LIG     1      16.540  37.063  22.390  1.00  0.00     0.173 HD
ENDROOT
TORSDOF 0
ENDMDL
MODEL 2
REMARK VINA RESULT:      -5.8      3.859      4.490
REMARK  0 active torsions:
REMARK  status: ('A' for Active; 'I' for Inactive)
ROOT
HETATM    1  O   LIG     1      17.632  36.005  20.145  1.00  0.00    -0.267 OA
HETATM    2  C   LIG     1      18.105  37.130  20.464  1.00  0.00     0.256 A 
HETATM    3  C   LIG     1      17.630  37.804  21.601  1.00  0.00     0.022 A 
HETATM    4  C   LIG     1      16.544  37.217  22.457  1.00  0.00     0.056 C 
HETATM    5  C   LIG     1      18.180  39.056  21.898  1.00  0.00     0.105 A 
HETATM    6  N   LIG     1      19.152  39.582  21.108  1.00  0.00    -0.318 N 
HETATM    7  C   LIG     1      19.602  38.908  20.015  1.00  0.00     0.326 A 
HETATM    8  N   LIG     1      19.080  37.693  19.699  1.00  0.00    -0.275 N 
HETATM    9  O   LIG     1      20.505  39.413  19.293  1.00  0.00    -0.247 OA
HETATM   10  H   LIG     1      19.553  40.517  21.347  1.00  0.00     0.170 HD
HETATM   11  H   LIG     1      19.430  37.184  18.855  1.00  0.00     0.173 HD
ENDROOT
TORSDOF 0
ENDMDL
MODEL 3
REMARK VINA RESULT:      -5.6      1.621      2.635
REMARK  0 active torsions:
REMARK  status: ('A' for Active; 'I' for Inactive)
ROOT
HETATM    1  O   LIG     1      17.190  38.525  25.419  1.00  0.00    -0.267 OA
HETATM    2  C   LIG     1      17.121  37.450  24.762  1.00  0.00     0.256 A 
HETATM    3  C   LIG     1      17.544  36.239  25.334  1.00  0.00     0.022 A 
HETATM    4  C   LIG     1      18.100  36.188  26.729  1.00  0.00     0.056 C 
HETATM    5  C   LIG     1      17.458  35.080  24.555  1.00  0.00     0.105 A 
HETATM    6  N   LIG     1      16.965  35.141  23.289  1.00  0.00    -0.318 N 
HETATM    7  C   LIG     1      16.555  36.324  22.757  1.00  0.00     0.326 A 
HETATM    8  N   LIG     1      16.634  37.467  23.491  1.00  0.00    -0.275 N 
HETATM    9  O   LIG     1      16.101  36.361  21.582  1.00  0.00    -0.247 OA
HETATM   10  H   LIG     1      16.906  34.265  22.722  1.00  0.00     0.170 HD
HETATM   11  H   LIG     1      16.319  38.372  23.072  1.00  0.00     0.173 HD
ENDROOT
TORSDOF 0
ENDMDL
MODEL 4
REMARK VINA RESULT:      -5.5      2.939      4.271
REMARK  0 active torsions:
REMARK  status: ('A' for Active; 'I' for Inactive)
ROOT
HETATM    1  O   LIG     1      18.814  39.513  20.923  1.00  0.00    -0.267 OA
HETATM    2  C   LIG     1      18.069  38.586  21.344  1.00  0.00     0.256 A 
HETATM    3  C   LIG     1      18.104  37.318  20.741  1.00  0.00     0.022 A 
HETATM    4  C   LIG     1      19.011  37.031  19.579  1.00  0.00     0.056 C 
HETATM    5  C   LIG     1      17.245  36.332  21.240  1.00  0.00     0.105 A 
HETATM    6  N   LIG     1      16.419  36.607  22.284  1.00  0.00    -0.318 N 
HETATM    7  C   LIG     1      16.406  37.841  22.856  1.00  0.00     0.326 A 
HETATM    8  N   LIG     1      17.226  38.819  22.387  1.00  0.00    -0.275 N 
HETATM    9  O   LIG     1      15.633  38.077  23.824  1.00  0.00    -0.247 OA
HETATM   10  H   LIG     1      15.786  35.857  22.645  1.00  0.00     0.170 HD
HETATM   11  H   LIG     1      17.207  39.766  22.832  1.00  0.00     0.173 HD
ENDROOT
TORSDOF 0
ENDMDL
MODEL 5
REMARK VINA RESULT:      -5.5      1.600      2.431
REMARK  0 active torsions:
REMARK  status: ('A' for Active; 'I' for Inactive)
ROOT
HETATM    1  O   LIG     1      17.309  34.646  24.717  1.00  0.00    -0.267 OA
HETATM    2  C   LIG     1      17.164  35.851  24.374  1.00  0.00     0.256 A 
HETATM    3  C   LIG     1      16.942  36.184  23.029  1.00  0.00     0.022 A 
HETATM    4  C   LIG     1      16.885  35.127  21.963  1.00  0.00     0.056 C 
HETATM    5  C   LIG     1      16.802  37.538  22.703  1.00  0.00     0.105 A 
HETATM    6  N   LIG     1      16.868  38.486  23.675  1.00  0.00    -0.318 N 
HETATM    7  C   LIG     1      17.078  38.140  24.974  1.00  0.00     0.326 A 
HETATM    8  N   LIG     1      17.224  36.832  25.316  1.00  0.00    -0.275 N 
HETATM    9  O   LIG     1      17.136  39.034  25.861  1.00  0.00    -0.247 OA
HETATM   10  H   LIG     1      16.759  39.493  23.414  1.00  0.00     0.170 HD
HETATM   11  H   LIG     1      17.387  36.576  26.317  1.00  0.00     0.173 HD
ENDROOT
TORSDOF 0
ENDMDL
MODEL 6
REMARK VINA RESULT:      -5.5      2.845      3.764
REMARK  0 active torsions:
REMARK  status: ('A' for Active; 'I' for Inactive)
ROOT
HETATM    1  O   LIG     1      17.165  35.520  20.473  1.00  0.00    -0.267 OA
HETATM    2  C   LIG     1      17.258  36.582  21.147  1.00  0.00     0.256 A 
HETATM    3  C   LIG     1      18.185  37.573  20.787  1.00  0.00     0.022 A 
HETATM    4  C   LIG     1      19.097  37.395  19.607  1.00  0.00     0.056 C 
HETATM    5  C   LIG     1      18.254  38.725  21.579  1.00  0.00     0.105 A 
HETATM    6  N   LIG     1      17.432  38.868  22.652  1.00  0.00    -0.318 N 
HETATM    7  C   LIG     1      16.536  37.898  22.978  1.00  0.00     0.326 A 
HETATM    8  N   LIG     1      16.453  36.766  22.230  1.00  0.00    -0.275 N 
HETATM    9  O   LIG     1      15.782  38.049  23.977  1.00  0.00    -0.247 OA
HETATM   10  H   LIG     1      17.495  39.737  23.230  1.00  0.00     0.170 HD
HETATM   11  H   LIG     1      15.764  36.024  22.490  1.00  0.00     0.173 HD
ENDROOT
TORSDOF 0
ENDMDL
MODEL 7
REMARK VINA RESULT:      -5.4      3.830      4.902
REMARK  0 active torsions:
REMARK  status: ('A' for Active; 'I' for Inactive)
ROOT
HETATM    1  O   LIG     1      17.298  38.976  22.558  1.00  0.00    -0.267 OA
HETATM    2  C   LIG     1      17.934  38.497  21.579  1.00  0.00     0.256 A 
HETATM    3  C   LIG     1      17.686  37.185  21.144  1.00  0.00     0.022 A 
HETATM    4  C   LIG     1      16.674  36.314  21.833  1.00  0.00     0.056 C 
HETATM    5  C   LIG     1      18.431  36.702  20.063  1.00  0.00     0.105 A 
HETATM    6  N   LIG     1      19.353  37.495  19.457  1.00  0.00    -0.318 N 
HETATM    7  C   LIG     1      19.573  38.766  19.891  1.00  0.00     0.326 A 
HETATM    8  N   LIG     1      18.867  39.258  20.944  1.00  0.00    -0.275 N 
HETATM    9  O   LIG     1      20.432  39.487  19.316  1.00  0.00    -0.247 OA
HETATM   10  H   LIG     1      19.899  37.118  18.649  1.00  0.00     0.170 HD
HETATM   11  H   LIG     1      19.045  40.235  21.273  1.00  0.00     0.173 HD
ENDROOT
TORSDOF 0
ENDMDL
MODEL 8
REMARK VINA RESULT:      -5.4      1.758      3.156
REMARK  0 active torsions:
REMARK  status: ('A' for Active; 'I' for Inactive)
ROOT
HETATM    1  O   LIG     1      16.791  36.080  22.009  1.00  0.00    -0.267 OA
HETATM    2  C   LIG     1      16.989  36.357  23.223  1.00  0.00     0.256 A 
HETATM    3  C   LIG     1      17.007  37.694  23.653  1.00  0.00     0.022 A 
HETATM    4  C   LIG     1      16.806  38.827  22.687  1.00  0.00     0.056 C 
HETATM    5  C   LIG     1      17.244  37.943  25.010  1.00  0.00     0.105 A 
HETATM    6  N   LIG     1      17.438  36.911  25.872  1.00  0.00    -0.318 N 
HETATM    7  C   LIG     1      17.410  35.623  25.435  1.00  0.00     0.326 A 
HETATM    8  N   LIG     1      17.188  35.353  24.121  1.00  0.00    -0.275 N 
HETATM    9  O   LIG     1      17.591  34.678  26.250  1.00  0.00    -0.247 OA
HETATM   10  H   LIG     1      17.612  37.116  26.882  1.00  0.00     0.170 HD
HETATM   11  H   LIG     1      17.171  34.360  23.793  1.00  0.00     0.173 HD
ENDROOT
TORSDOF 0
ENDMDL
MODEL 9
REMARK VINA RESULT:      -5.3      1.498      2.156
REMARK  0 active torsions:
REMARK  status: ('A' for Active; 'I' for Inactive)
ROOT
HETATM    1  O   LIG     1      18.746  37.204  26.831  1.00  0.00    -0.267 OA
HETATM    2  C   LIG     1      18.094  37.129  25.754  1.00  0.00     0.256 A 
HETATM    3  C   LIG     1      17.637  35.887  25.284  1.00  0.00     0.022 A 
HETATM    4  C   LIG     1      17.921  34.617  26.036  1.00  0.00     0.056 C 
HETATM    5  C   LIG     1      16.931  35.861  24.076  1.00  0.00     0.105 A 
HETATM    6  N   LIG     1      16.693  37.015  23.399  1.00  0.00    -0.318 N 
HETATM    7  C   LIG     1      17.138  38.209  23.876  1.00  0.00     0.326 A 
HETATM    8  N   LIG     1      17.833  38.261  25.044  1.00  0.00    -0.275 N 
HETATM    9  O   LIG     1      16.907  39.269  23.233  1.00  0.00    -0.247 OA
HETATM   10  H   LIG     1      16.161  36.978  22.499  1.00  0.00     0.170 HD
HETATM   11  H   LIG     1      18.173  39.183  25.401  1.00  0.00     0.173 HD
ENDROOT
TORSDOF 0
ENDMDL
MODEL 10
REMARK VINA RESULT:      -5.3      8.987     10.146
REMARK  0 active torsions:
REMARK  status: ('A' for Active; 'I' for Inactive)
ROOT
HETATM    1  O   LIG     1      12.716  30.839  16.916  1.00  0.00    -0.267 OA
HETATM    2  C   LIG     1      13.734  31.532  16.639  1.00  0.00     0.256 A 
HETATM    3  C   LIG     1      14.536  31.205  15.534  1.00  0.00     0.022 A 
HETATM    4  C   LIG     1      14.218  30.023  14.662  1.00  0.00     0.056 C 
HETATM    5  C   LIG     1      15.660  32.000  15.282  1.00  0.00     0.105 A 
HETATM    6  N   LIG     1      15.944  33.058  16.086  1.00  0.00    -0.318 N 
HETATM    7  C   LIG     1      15.149  33.361  17.148  1.00  0.00     0.326 A 
HETATM    8  N   LIG     1      14.054  32.601  17.419  1.00  0.00    -0.275 N 
HETATM    9  O   LIG     1      15.429  34.347  17.882  1.00  0.00    -0.247 OA
HETATM   10  H   LIG     1      16.786  33.642  15.881  1.00  0.00     0.170 HD
HETATM   11  H   LIG     1      13.451  32.839  18.239  1.00  0.00     0.173 HD
ENDROOT
TORSDOF 0
ENDMDL
MODEL 11
REMARK VINA RESULT:      -5.2      9.078     10.177
REMARK  0 active torsions:
REMARK  status: ('A' for Active; 'I' for Inactive)
ROOT
HETATM    1  O   LIG     1      16.466  31.603  14.343  1.00  0.00    -0.267 OA
HETATM    2  C   LIG     1      15.702  31.993  15.269  1.00  0.00     0.256 A 
HETATM    3  C   LIG     1      14.545  31.264  15.589  1.00  0.00     0.022 A 
HETATM    4  C   LIG     1      14.176  30.017  14.836  1.00  0.00     0.056 C 
HETATM    5  C   LIG     1      13.728  31.750  16.615  1.00  0.00     0.105 A 
HETATM    6  N   LIG     1      14.065  32.886  17.280  1.00  0.00    -0.318 N 
HETATM    7  C   LIG     1      15.195  33.573  16.957  1.00  0.00     0.326 A 
HETATM    8  N   LIG     1      16.003  33.126  15.959  1.00  0.00    -0.275 N 
HETATM    9  O   LIG     1      15.491  34.625  17.585  1.00  0.00    -0.247 OA
HETATM   10  H   LIG     1      13.444  33.233  18.045  1.00  0.00     0.170 HD
HETATM   11  H   LIG     1      16.868  33.662  15.717  1.00  0.00     0.173 HD
ENDROOT
TORSDOF 0
ENDMDL
MODEL 12
REMARK VINA RESULT:      -5.1      3.407      4.598
REMARK  0 active torsions:
REMARK  status: ('A' for Active; 'I' for Inactive)
ROOT
HETATM    1  O   LIG     1      18.995  36.699  19.130  1.00  0.00    -0.267 OA
HETATM    2  C   LIG     1      18.257  36.832  20.144  1.00  0.00     0.256 A 
HETATM    3  C   LIG     1      18.294  38.016  20.899  1.00  0.00     0.022 A 
HETATM    4  C   LIG     1      19.214  39.145  20.533  1.00  0.00     0.056 C 
HETATM    5  C   LIG     1      17.464  38.103  22.022  1.00  0.00     0.105 A 
HETATM    6  N   LIG     1      16.646  37.069  22.351  1.00  0.00    -0.318 N 
HETATM    7  C   LIG     1      16.621  35.933  21.602  1.00  0.00     0.326 A 
HETATM    8  N   LIG     1      17.422  35.820  20.508  1.00  0.00    -0.275 N 
HETATM    9  O   LIG     1      15.855  34.985  21.922  1.00  0.00    -0.247 OA
HETATM   10  H   LIG     1      16.031  37.152  23.192  1.00  0.00     0.170 HD
HETATM   11  H   LIG     1      17.399  34.943  19.940  1.00  0.00     0.173 HD
ENDROOT
TORSDOF 0
ENDMDL
MODEL 13
REMARK VINA RESULT:      -5.1      3.576      5.199
REMARK  0 active torsions:
REMARK  status: ('A' for Active; 'I' for Inactive)
ROOT
HETATM    1  O   LIG     1      18.594  39.698  21.749  1.00  0.00    -0.267 OA
HETATM    2  C   LIG     1      18.330  38.563  21.266  1.00  0.00     0.256 A 
HETATM    3  C   LIG     1      19.039  38.081  20.153  1.00  0.00     0.022 A 
HETATM    4  C   LIG     1      20.115  38.901  19.500  1.00  0.00     0.056 C 
HETATM    5  C   LIG     1      18.694  36.821  19.651  1.00  0.00     0.105 A 
HETATM    6  N   LIG     1      17.709  36.095  20.243  1.00  0.00    -0.318 N 
HETATM    7  C   LIG     1      17.040  36.578  21.324  1.00  0.00     0.326 A 
HETATM    8  N   LIG     1      17.351  37.802  21.828  1.00  0.00    -0.275 N 
HETATM    9  O   LIG     1      16.129  35.889  21.860  1.00  0.00    -0.247 OA
HETATM   10  H   LIG     1      17.466  35.155  19.856  1.00  0.00     0.170 HD
HETATM   11  H   LIG     1      16.829  38.167  22.658  1.00  0.00     0.173 HD
ENDROOT
TORSDOF 0
ENDMDL
MODEL 14
REMARK VINA RESULT:      -5.1      8.462      9.683
REMARK  0 active torsions:
REMARK  status: ('A' for Active; 'I' for Inactive)
ROOT
HETATM    1  O   LIG     1      15.743  32.561  14.859  1.00  0.00    -0.267 OA
HETATM    2  C   LIG     1      15.254  32.343  16.001  1.00  0.00     0.256 A 
HETATM    3  C   LIG     1      14.302  31.327  16.184  1.00  0.00     0.022 A 
HETATM    4  C   LIG     1      13.829  30.485  15.033  1.00  0.00     0.056 C 
HETATM    5  C   LIG     1      13.784  31.138  17.470  1.00  0.00     0.105 A 
HETATM    6  N   LIG     1      14.209  31.915  18.501  1.00  0.00    -0.318 N 
HETATM    7  C   LIG     1      15.138  32.889  18.303  1.00  0.00     0.326 A 
HETATM    8  N   LIG     1      15.653  33.098  17.061  1.00  0.00    -0.275 N 
HETATM    9  O   LIG     1      15.521  33.599  19.271  1.00  0.00    -0.247 OA
HETATM   10  H   LIG     1      13.813  31.758  19.455  1.00  0.00     0.170 HD
HETATM   11  H   LIG     1      16.365  33.851  16.918  1.00  0.00     0.173 HD
ENDROOT
TORSDOF 0
ENDMDL
MODEL 15
REMARK VINA RESULT:      -5.0      9.063     10.346
REMARK  0 active torsions:
REMARK  status: ('A' for Active; 'I' for Inactive)
ROOT
HETATM    1  O   LIG     1      15.723  34.518  16.935  1.00  0.00    -0.267 OA
HETATM    2  C   LIG     1      15.259  33.415  16.534  1.00  0.00     0.256 A 
HETATM    3  C   LIG     1      15.933  32.677  15.548  1.00  0.00     0.022 A 
HETATM    4  C   LIG     1      17.209  33.180  14.934  1.00  0.00     0.056 C 
HETATM    5  C   LIG     1      15.366  31.468  15.132  1.00  0.00     0.105 A 
HETATM    6  N   LIG     1      14.204  31.030  15.685  1.00  0.00    -0.318 N 
HETATM    7  C   LIG     1      13.571  31.758  16.645  1.00  0.00     0.326 A 
HETATM    8  N   LIG     1      14.098  32.940  17.062  1.00  0.00    -0.275 N 
HETATM    9  O   LIG     1      12.495  31.335  17.147  1.00  0.00    -0.247 OA
HETATM   10  H   LIG     1      13.796  30.123  15.364  1.00  0.00     0.170 HD
HETATM   11  H   LIG     1      13.602  33.494  17.799  1.00  0.00     0.173 HD
ENDROOT
TORSDOF 0
ENDMDL
MODEL 16
REMARK VINA RESULT:      -5.0      2.032      2.928
REMARK  0 active torsions:
REMARK  status: ('A' for Active; 'I' for Inactive)
ROOT
HETATM    1  O   LIG     1      17.090  37.778  21.630  1.00  0.00    -0.267 OA
HETATM    2  C   LIG     1      17.124  37.156  22.727  1.00  0.00     0.256 A 
HETATM    3  C   LIG     1      16.997  35.757  22.754  1.00  0.00     0.022 A 
HETATM    4  C   LIG     1      16.805  34.967  21.491  1.00  0.00     0.056 C 
HETATM    5  C   LIG     1      17.027  35.121  24.000  1.00  0.00     0.105 A 
HETATM    6  N   LIG     1      17.188  35.848  25.137  1.00  0.00    -0.318 N 
HETATM    7  C   LIG     1      17.316  37.202  25.086  1.00  0.00     0.326 A 
HETATM    8  N   LIG     1      17.283  37.846  23.889  1.00  0.00    -0.275 N 
HETATM    9  O   LIG     1      17.465  37.860  26.151  1.00  0.00    -0.247 OA
HETATM   10  H   LIG     1      17.211  35.356  26.059  1.00  0.00     0.170 HD
HETATM   11  H   LIG     1      17.380  38.887  23.860  1.00  0.00     0.173 HD
ENDROOT
TORSDOF 0
ENDMDL
MODEL 17
REMARK VINA RESULT:      -4.9     12.402     13.804
REMARK  0 active torsions:
REMARK  status: ('A' for Active; 'I' for Inactive)
ROOT
HETATM    1  O   LIG     1      12.983  30.892  15.451  1.00  0.00    -0.267 OA
HETATM    2  C   LIG     1      13.456  29.920  14.801  1.00  0.00     0.256 A 
HETATM    3  C   LIG     1      14.804  29.918  14.406  1.00  0.00     0.022 A 
HETATM    4  C   LIG     1      15.713  31.069  14.730  1.00  0.00     0.056 C 
HETATM    5  C   LIG     1      15.270  28.820  13.675  1.00  0.00     0.105 A 
HETATM    6  N   LIG     1      14.434  27.790  13.376  1.00  0.00    -0.318 N 
HETATM    7  C   LIG     1      13.134  27.810  13.775  1.00  0.00     0.326 A 
HETATM    8  N   LIG     1      12.653  28.868  14.481  1.00  0.00    -0.275 N 
HETATM    9  O   LIG     1      12.374  26.846  13.489  1.00  0.00    -0.247 OA
HETATM   10  H   LIG     1      14.801  26.977  12.831  1.00  0.00     0.170 HD
HETATM   11  H   LIG     1      11.651  28.876  14.781  1.00  0.00     0.173 HD
ENDROOT
TORSDOF 0
ENDMDL
MODEL 18
REMARK VINA RESULT:      -4.8      2.248      3.449
REMARK  0 active torsions:
REMARK  status: ('A' for Active; 'I' for Inactive)
ROOT
HETATM    1  O   LIG     1      17.313  39.213  22.751  1.00  0.00    -0.267 OA
HETATM    2  C   LIG     1      17.196  37.959  22.674  1.00  0.00     0.256 A 
HETATM    3  C   LIG     1      17.155  37.177  23.839  1.00  0.00     0.022 A 
HETATM    4  C   LIG     1      17.262  37.801  25.202  1.00  0.00     0.056 C 
HETATM    5  C   LIG     1      17.038  35.790  23.694  1.00  0.00     0.105 A 
HETATM    6  N   LIG     1      16.955  35.236  22.455  1.00  0.00    -0.318 N 
HETATM    7  C   LIG     1      16.990  36.014  21.340  1.00  0.00     0.326 A 
HETATM    8  N   LIG     1      17.110  37.364  21.453  1.00  0.00    -0.275 N 
HETATM    9  O   LIG     1      16.912  35.482  20.199  1.00  0.00    -0.247 OA
HETATM   10  H   LIG     1      16.865  34.199  22.365  1.00  0.00     0.170 HD
HETATM   11  H   LIG     1      17.139  37.954  20.589  1.00  0.00     0.173 HD
ENDROOT
TORSDOF 0
ENDMDL
MODEL 19
REMARK VINA RESULT:      -4.8      2.723      3.289
REMARK  0 active torsions:
REMARK  status: ('A' for Active; 'I' for Inactive)
ROOT
HETATM    1  O   LIG     1      17.681  35.993  19.730  1.00  0.00    -0.267 OA
HETATM    2  C   LIG     1      17.606  36.700  20.772  1.00  0.00     0.256 A 
HETATM    3  C   LIG     1      16.923  36.226  21.904  1.00  0.00     0.022 A 
HETATM    4  C   LIG     1      16.255  34.880  21.904  1.00  0.00     0.056 C 
HETATM    5  C   LIG     1      16.859  37.059  23.027  1.00  0.00     0.105 A 
HETATM    6  N   LIG     1      17.455  38.280  23.009  1.00  0.00    -0.318 N 
HETATM    7  C   LIG     1      18.118  38.716  21.903  1.00  0.00     0.326 A 
HETATM    8  N   LIG     1      18.190  37.929  20.796  1.00  0.00    -0.275 N 
HETATM    9  O   LIG     1      18.666  39.851  21.906  1.00  0.00    -0.247 OA
HETATM   10  H   LIG     1      17.400  38.887  23.857  1.00  0.00     0.170 HD
HETATM   11  H   LIG     1      18.699  38.274  19.950  1.00  0.00     0.173 HD
ENDROOT
TORSDOF 0
ENDMDL
MODEL 20
REMARK VINA RESULT:      -4.8      9.938     11.005
REMARK  0 active torsions:
REMARK  status: ('A' for Active; 'I' for Inactive)
ROOT
HETATM    1  O   LIG     1      15.935  30.753  13.655  1.00  0.00    -0.267 OA
HETATM    2  C   LIG     1      15.400  31.220  14.699  1.00  0.00     0.256 A 
HETATM    3  C   LIG     1      15.948  32.346  15.335  1.00  0.00     0.022 A 
HETATM    4  C   LIG     1      17.184  33.016  14.805  1.00  0.00     0.056 C 
HETATM    5  C   LIG     1      15.322  32.811  16.496  1.00  0.00     0.105 A 
HETATM    6  N   LIG     1      14.211  32.188  16.973  1.00  0.00    -0.318 N 
HETATM    7  C   LIG     1      13.694  31.103  16.336  1.00  0.00     0.326 A 
HETATM    8  N   LIG     1      14.287  30.626  15.209  1.00  0.00    -0.275 N 
HETATM    9  O   LIG     1      12.663  30.538  16.793  1.00  0.00    -0.247 OA
HETATM   10  H   LIG     1      13.755  32.551  17.840  1.00  0.00     0.170 HD
HETATM   11  H   LIG     1      13.884  29.789  14.729  1.00  0.00     0.173 HD
ENDROOT
TORSDOF 0
ENDMDL
