MODEL 1
REMARK VINA RESULT:      -6.6      0.000      0.000
REMARK  2 active torsions:
REMARK  status: ('A' for Active; 'I' for Inactive)
REMARK    1  A    between atoms: O_1  and  C_2 
REMARK    2  A    between atoms: C_2  and  C_3 
ROOT
HETATM    1  C   LIG     1      17.150  36.852  24.333  1.00  0.00     0.037 A 
HETATM    2  C   LIG     1      17.830  37.563  25.341  1.00  0.00     0.018 A 
HETATM    3  C   LIG     1      18.413  36.884  26.415  1.00  0.00     0.001 A 
HETATM    4  C   LIG     1      18.325  35.493  26.496  1.00  0.00     0.000 A 
HETATM    5  C   LIG     1      17.652  34.776  25.503  1.00  0.00     0.001 A 
HETATM    6  C   LIG     1      17.068  35.451  24.425  1.00  0.00     0.018 A 
ENDROOT
BRANCH   1   7
HETATM    7  C   LIG     1      16.531  37.563  23.194  1.00  0.00     0.176 C 
HETATM    8  O   LIG     1      17.142  37.668  22.097  1.00  0.00    -0.646 OA
BRANCH   7   9
HETATM    9  O   LIG     1      15.263  38.125  23.323  1.00  0.00    -0.773 OA
HETATM   10  H   LIG     1      14.981  38.912  22.750  1.00  0.00     0.167 HD
ENDBRANCH   7   9
ENDBRANCH   1   7
TORSDOF 2
ENDMDL
MODEL 2
REMARK VINA RESULT:      -6.3      3.075      4.610
REMARK  2 active torsions:
REMARK  status: ('A' for Active; 'I' for Inactive)
REMARK    1  A    between atoms: O_1  and  C_2 
REMARK    2  A    between atoms: C_2  and  C_3 
ROOT
HETATM    1  C   LIG     1      17.454  38.157  21.970  1.00  0.00     0.037 A 
HETATM    2  C   LIG     1      17.485  36.949  21.247  1.00  0.00     0.018 A 
HETATM    3  C   LIG     1      18.342  36.803  20.153  1.00  0.00     0.001 A 
HETATM    4  C   LIG     1      19.176  37.855  19.769  1.00  0.00     0.000 A 
HETATM    5  C   LIG     1      19.154  39.058  20.479  1.00  0.00     0.001 A 
HETATM    6  C   LIG     1      18.298  39.211  21.575  1.00  0.00     0.018 A 
ENDROOT
BRANCH   1   7
HETATM    7  C   LIG     1      16.549  38.321  23.129  1.00  0.00     0.176 C 
HETATM    8  O   LIG     1      17.012  38.590  24.269  1.00  0.00    -0.646 OA
BRANCH   7   9
HETATM    9  O   LIG     1      15.172  38.179  22.970  1.00  0.00    -0.773 OA
HETATM   10  H   LIG     1      14.632  37.599  23.601  1.00  0.00     0.167 HD
ENDBRANCH   7   9
ENDBRANCH   1   7
TORSDOF 2
ENDMDL
MODEL 3
REMARK VINA RESULT:      -6.0      4.311      5.290
REMARK  2 active torsions:
REMARK  status: ('A' for Active; 'I' for Inactive)
REMARK    1  A    between atoms: O_1  and  C_2 
REMARK    2  A    between atoms: C_2  and  C_3 
ROOT
HETATM    1  C   LIG     1      18.775  38.389  19.903  1.00  0.00     0.037 A 
HETATM    2  C   LIG     1      18.258  39.069  21.022  1.00  0.00     0.018 A 
HETATM    3  C   LIG     1      17.514  38.383  21.985  1.00  0.00     0.001 A 
HETATM    4  C   LIG     1      17.278  37.013  21.844  1.00  0.00     0.000 A 
HETATM    5  C   LIG     1      17.785  36.328  20.738  1.00  0.00     0.001 A 
HETATM    6  C   LIG     1      18.531  37.010  19.771  1.00  0.00     0.018 A 
ENDROOT
BRANCH   1   7
HETATM    7  C   LIG     1      19.563  39.109  18.879  1.00  0.00     0.176 C 
HETATM    8  O   LIG     1      19.010  39.536  17.830  1.00  0.00    -0.646 OA
BRANCH   7   9
HETATM    9  O   LIG     1      20.927  39.322  19.064  1.00  0.00    -0.773 OA
HETATM   10  H   LIG     1      21.299  40.260  19.159  1.00  0.00     0.167 HD
ENDBRANCH   7   9
ENDBRANCH   1   7
TORSDOF 2
ENDMDL
MODEL 4
REMARK VINA RESULT:      -5.8      4.111      5.202
REMARK  2 active torsions:
REMARK  status: ('A' for Active; 'I' for Inactive)
REMARK    1  A    between atoms: O_1  and  C_2 
REMARK    2  A    between atoms: C_2  and  C_3 
ROOT
HETATM    1  C   LIG     1      18.624  38.286  20.164  1.00  0.00     0.037 A 
HETATM    2  C   LIG     1      18.415  36.906  19.980  1.00  0.00     0.018 A 
HETATM    3  C   LIG     1      17.642  36.180  20.891  1.00  0.00     0.001 A 
HETATM    4  C   LIG     1      17.071  36.820  21.992  1.00  0.00     0.000 A 
HETATM    5  C   LIG     1      17.271  38.189  22.186  1.00  0.00     0.001 A 
HETATM    6  C   LIG     1      18.043  38.921  21.277  1.00  0.00     0.018 A 
ENDROOT
BRANCH   1   7
HETATM    7  C   LIG     1      19.441  39.061  19.205  1.00  0.00     0.176 C 
HETATM    8  O   LIG     1      20.677  39.216  19.397  1.00  0.00    -0.646 OA
BRANCH   7   9
HETATM    9  O   LIG     1      18.851  39.627  18.077  1.00  0.00    -0.773 OA
HETATM   10  H   LIG     1      17.870  39.476  17.872  1.00  0.00     0.167 HD
ENDBRANCH   7   9
ENDBRANCH   1   7
TORSDOF 2
ENDMDL
MODEL 5
REMARK VINA RESULT:      -5.8      2.147      3.363
REMARK  2 active torsions:
REMARK  status: ('A' for Active; 'I' for Inactive)
REMARK    1  A    between atoms: O_1  and  C_2 
REMARK    2  A    between atoms: C_2  and  C_3 
ROOT
HETATM    1  C   LIG     1      17.327  37.037  24.159  1.00  0.00     0.037 A 
HETATM    2  C   LIG     1      17.364  37.895  23.042  1.00  0.00     0.018 A 
HETATM    3  C   LIG     1      17.200  37.383  21.752  1.00  0.00     0.001 A 
HETATM    4  C   LIG     1      16.998  36.014  21.561  1.00  0.00     0.000 A 
HETATM    5  C   LIG     1      16.961  35.153  22.660  1.00  0.00     0.001 A 
HETATM    6  C   LIG     1      17.124  35.660  23.954  1.00  0.00     0.018 A 
ENDROOT
BRANCH   1   7
HETATM    7  C   LIG     1      17.501  37.571  25.527  1.00  0.00     0.176 C 
HETATM    8  O   LIG     1      17.912  36.826  26.456  1.00  0.00    -0.646 OA
BRANCH   7   9
HETATM    9  O   LIG     1      17.211  38.906  25.802  1.00  0.00    -0.773 OA
HETATM   10  H   LIG     1      17.939  39.610  25.787  1.00  0.00     0.167 HD
ENDBRANCH   7   9
ENDBRANCH   1   7
TORSDOF 2
ENDMDL
MODEL 6
REMARK VINA RESULT:      -5.7      9.039     10.220
REMARK  2 active torsions:
REMARK  status: ('A' for Active; 'I' for Inactive)
REMARK    1  A    between atoms: O_1  and  C_2 
REMARK    2  A    between atoms: C_2  and  C_3 
ROOT
HETATM    1  C   LIG     1      14.715  32.450  16.425  1.00  0.00     0.037 A 
HETATM    2  C   LIG     1      13.508  31.866  16.855  1.00  0.00     0.018 A 
HETATM    3  C   LIG     1      13.001  30.735  16.210  1.00  0.00     0.001 A 
HETATM    4  C   LIG     1      13.689  30.175  15.131  1.00  0.00     0.000 A 
HETATM    5  C   LIG     1      14.887  30.745  14.696  1.00  0.00     0.001 A 
HETATM    6  C   LIG     1      15.400  31.877  15.338  1.00  0.00     0.018 A 
ENDROOT
BRANCH   1   7
HETATM    7  C   LIG     1      15.258  33.648  17.103  1.00  0.00     0.176 C 
HETATM    8  O   LIG     1      15.754  34.592  16.431  1.00  0.00    -0.646 OA
BRANCH   7   9
HETATM    9  O   LIG     1      15.226  33.743  18.492  1.00  0.00    -0.773 OA
HETATM   10  H   LIG     1      15.032  34.627  18.948  1.00  0.00     0.167 HD
ENDBRANCH   7   9
ENDBRANCH   1   7
TORSDOF 2
ENDMDL
MODEL 7
REMARK VINA RESULT:      -5.7      9.048     10.228
REMARK  2 active torsions:
REMARK  status: ('A' for Active; 'I' for Inactive)
REMARK    1  A    between atoms: O_1  and  C_2 
REMARK    2  A    between atoms: C_2  and  C_3 
ROOT
HETATM    1  C   LIG     1      14.718  32.447  16.413  1.00  0.00     0.037 A 
HETATM    2  C   LIG     1      15.401  31.874  15.324  1.00  0.00     0.018 A 
HETATM    3  C   LIG     1      14.886  30.745  14.681  1.00  0.00     0.001 A 
HETATM    4  C   LIG     1      13.687  30.176  15.116  1.00  0.00     0.000 A 
HETATM    5  C   LIG     1      13.000  30.735  16.197  1.00  0.00     0.001 A 
HETATM    6  C   LIG     1      13.511  31.865  16.844  1.00  0.00     0.018 A 
ENDROOT
BRANCH   1   7
HETATM    7  C   LIG     1      15.257  33.642  17.099  1.00  0.00     0.176 C 
HETATM    8  O   LIG     1      15.751  34.592  16.434  1.00  0.00    -0.646 OA
BRANCH   7   9
HETATM    9  O   LIG     1      15.223  33.729  18.489  1.00  0.00    -0.773 OA
HETATM   10  H   LIG     1      16.076  33.687  19.034  1.00  0.00     0.167 HD
ENDBRANCH   7   9
ENDBRANCH   1   7
TORSDOF 2
ENDMDL
MODEL 8
REMARK VINA RESULT:      -5.6      9.447     10.595
REMARK  2 active torsions:
REMARK  status: ('A' for Active; 'I' for Inactive)
REMARK    1  A    between atoms: O_1  and  C_2 
REMARK    2  A    between atoms: C_2  and  C_3 
ROOT
HETATM    1  C   LIG     1      15.486  32.259  15.677  1.00  0.00     0.037 A 
HETATM    2  C   LIG     1      15.242  31.164  14.827  1.00  0.00     0.018 A 
HETATM    3  C   LIG     1      14.101  30.375  15.000  1.00  0.00     0.001 A 
HETATM    4  C   LIG     1      13.193  30.669  16.020  1.00  0.00     0.000 A 
HETATM    5  C   LIG     1      13.425  31.753  16.870  1.00  0.00     0.001 A 
HETATM    6  C   LIG     1      14.565  32.546  16.701  1.00  0.00     0.018 A 
ENDROOT
BRANCH   1   7
HETATM    7  C   LIG     1      16.692  33.098  15.501  1.00  0.00     0.176 C 
HETATM    8  O   LIG     1      17.793  32.575  15.180  1.00  0.00    -0.646 OA
BRANCH   7   9
HETATM    9  O   LIG     1      16.621  34.477  15.688  1.00  0.00    -0.773 OA
HETATM   10  H   LIG     1      15.765  34.915  16.006  1.00  0.00     0.167 HD
ENDBRANCH   7   9
ENDBRANCH   1   7
TORSDOF 2
ENDMDL
MODEL 9
REMARK VINA RESULT:      -5.5      9.819     10.961
REMARK  2 active torsions:
REMARK  status: ('A' for Active; 'I' for Inactive)
REMARK    1  A    between atoms: O_1  and  C_2 
REMARK    2  A    between atoms: C_2  and  C_3 
ROOT
HETATM    1  C   LIG     1      15.424  32.008  15.423  1.00  0.00     0.037 A 
HETATM    2  C   LIG     1      14.360  31.825  16.326  1.00  0.00     0.018 A 
HETATM    3  C   LIG     1      13.427  30.806  16.122  1.00  0.00     0.001 A 
HETATM    4  C   LIG     1      13.543  29.959  15.017  1.00  0.00     0.000 A 
HETATM    5  C   LIG     1      14.594  30.131  14.113  1.00  0.00     0.001 A 
HETATM    6  C   LIG     1      15.532  31.150  14.313  1.00  0.00     0.018 A 
ENDROOT
BRANCH   1   7
HETATM    7  C   LIG     1      16.417  33.085  15.632  1.00  0.00     0.176 C 
HETATM    8  O   LIG     1      17.635  32.890  15.376  1.00  0.00    -0.646 OA
BRANCH   7   9
HETATM    9  O   LIG     1      16.012  34.328  16.114  1.00  0.00    -0.773 OA
HETATM   10  H   LIG     1      16.677  34.961  16.543  1.00  0.00     0.167 HD
ENDBRANCH   7   9
ENDBRANCH   1   7
TORSDOF 2
ENDMDL
MODEL 10
REMARK VINA RESULT:      -5.4     10.287     11.367
REMARK  2 active torsions:
REMARK  status: ('A' for Active; 'I' for Inactive)
REMARK    1  A    between atoms: O_1  and  C_2 
REMARK    2  A    between atoms: C_2  and  C_3 
ROOT
HETATM    1  C   LIG     1      14.440  31.158  15.745  1.00  0.00     0.037 A 
HETATM    2  C   LIG     1      15.345  32.237  15.731  1.00  0.00     0.018 A 
HETATM    3  C   LIG     1      16.165  32.457  14.621  1.00  0.00     0.001 A 
HETATM    4  C   LIG     1      16.094  31.606  13.516  1.00  0.00     0.000 A 
HETATM    5  C   LIG     1      15.201  30.532  13.518  1.00  0.00     0.001 A 
HETATM    6  C   LIG     1      14.377  30.307  14.626  1.00  0.00     0.018 A 
ENDROOT
BRANCH   1   7
HETATM    7  C   LIG     1      13.569  30.918  16.916  1.00  0.00     0.176 C 
HETATM    8  O   LIG     1      13.940  31.262  18.070  1.00  0.00    -0.646 OA
BRANCH   7   9
HETATM    9  O   LIG     1      12.327  30.309  16.753  1.00  0.00    -0.773 OA
HETATM   10  H   LIG     1      12.002  30.026  15.835  1.00  0.00     0.167 HD
ENDBRANCH   7   9
ENDBRANCH   1   7
TORSDOF 2
ENDMDL
MODEL 11
REMARK VINA RESULT:      -5.4     10.754     11.792
REMARK  2 active torsions:
REMARK  status: ('A' for Active; 'I' for Inactive)
REMARK    1  A    between atoms: O_1  and  C_2 
REMARK    2  A    between atoms: C_2  and  C_3 
ROOT
HETATM    1  C   LIG     1      14.124  30.434  15.131  1.00  0.00     0.037 A 
HETATM    2  C   LIG     1      13.235  30.777  16.168  1.00  0.00     0.018 A 
HETATM    3  C   LIG     1      13.485  31.893  16.972  1.00  0.00     0.001 A 
HETATM    4  C   LIG     1      14.620  32.676  16.752  1.00  0.00     0.000 A 
HETATM    5  C   LIG     1      15.509  32.346  15.727  1.00  0.00     0.001 A 
HETATM    6  C   LIG     1      15.264  31.231  14.918  1.00  0.00     0.018 A 
ENDROOT
BRANCH   1   7
HETATM    7  C   LIG     1      13.867  29.255  14.275  1.00  0.00     0.176 C 
HETATM    8  O   LIG     1      14.824  28.563  13.837  1.00  0.00    -0.646 OA
BRANCH   7   9
HETATM    9  O   LIG     1      12.561  28.897  13.947  1.00  0.00    -0.773 OA
HETATM   10  H   LIG     1      12.179  29.108  13.032  1.00  0.00     0.167 HD
ENDBRANCH   7   9
ENDBRANCH   1   7
TORSDOF 2
ENDMDL
MODEL 12
REMARK VINA RESULT:      -5.4      3.497      4.201
REMARK  2 active torsions:
REMARK  status: ('A' for Active; 'I' for Inactive)
REMARK    1  A    between atoms: O_1  and  C_2 
REMARK    2  A    between atoms: C_2  and  C_3 
ROOT
HETATM    1  C   LIG     1      18.027  37.449  20.822  1.00  0.00     0.037 A 
HETATM    2  C   LIG     1      18.034  38.679  21.507  1.00  0.00     0.018 A 
HETATM    3  C   LIG     1      17.305  38.835  22.689  1.00  0.00     0.001 A 
HETATM    4  C   LIG     1      16.562  37.769  23.200  1.00  0.00     0.000 A 
HETATM    5  C   LIG     1      16.546  36.544  22.530  1.00  0.00     0.001 A 
HETATM    6  C   LIG     1      17.275  36.382  21.347  1.00  0.00     0.018 A 
ENDROOT
BRANCH   1   7
HETATM    7  C   LIG     1      18.796  37.276  19.571  1.00  0.00     0.176 C 
HETATM    8  O   LIG     1      19.963  37.742  19.468  1.00  0.00    -0.646 OA
BRANCH   7   9
HETATM    9  O   LIG     1      18.237  36.595  18.492  1.00  0.00    -0.773 OA
HETATM   10  H   LIG     1      18.777  35.913  17.971  1.00  0.00     0.167 HD
ENDBRANCH   7   9
ENDBRANCH   1   7
TORSDOF 2
ENDMDL
MODEL 13
REMARK VINA RESULT:      -5.3      3.679      4.567
REMARK  2 active torsions:
REMARK  status: ('A' for Active; 'I' for Inactive)
REMARK    1  A    between atoms: O_1  and  C_2 
REMARK    2  A    between atoms: C_2  and  C_3 
ROOT
HETATM    1  C   LIG     1      18.026  37.626  20.933  1.00  0.00     0.037 A 
HETATM    2  C   LIG     1      17.258  36.519  21.344  1.00  0.00     0.018 A 
HETATM    3  C   LIG     1      16.330  36.649  22.381  1.00  0.00     0.001 A 
HETATM    4  C   LIG     1      16.157  37.879  23.018  1.00  0.00     0.000 A 
HETATM    5  C   LIG     1      16.914  38.984  22.620  1.00  0.00     0.001 A 
HETATM    6  C   LIG     1      17.844  38.861  21.583  1.00  0.00     0.018 A 
ENDROOT
BRANCH   1   7
HETATM    7  C   LIG     1      19.011  37.497  19.837  1.00  0.00     0.176 C 
HETATM    8  O   LIG     1      18.935  36.541  19.019  1.00  0.00    -0.646 OA
BRANCH   7   9
HETATM    9  O   LIG     1      20.033  38.433  19.699  1.00  0.00    -0.773 OA
HETATM   10  H   LIG     1      20.273  38.810  18.789  1.00  0.00     0.167 HD
ENDBRANCH   7   9
ENDBRANCH   1   7
TORSDOF 2
ENDMDL
MODEL 14
REMARK VINA RESULT:      -5.3      9.881     10.903
REMARK  2 active torsions:
REMARK  status: ('A' for Active; 'I' for Inactive)
REMARK    1  A    between atoms: O_1  and  C_2 
REMARK    2  A    between atoms: C_2  and  C_3 
ROOT
HETATM    1  C   LIG     1      15.201  31.657  15.070  1.00  0.00     0.037 A 
HETATM    2  C   LIG     1      15.682  32.599  15.999  1.00  0.00     0.018 A 
HETATM    3  C   LIG     1      15.126  32.676  17.279  1.00  0.00     0.001 A 
HETATM    4  C   LIG     1      14.089  31.816  17.647  1.00  0.00     0.000 A 
HETATM    5  C   LIG     1      13.603  30.878  16.733  1.00  0.00     0.001 A 
HETATM    6  C   LIG     1      14.155  30.796  15.450  1.00  0.00     0.018 A 
ENDROOT
BRANCH   1   7
HETATM    7  C   LIG     1      15.783  31.570  13.712  1.00  0.00     0.176 C 
HETATM    8  O   LIG     1      15.914  30.453  13.144  1.00  0.00    -0.646 OA
BRANCH   7   9
HETATM    9  O   LIG     1      16.192  32.724  13.049  1.00  0.00    -0.773 OA
HETATM   10  H   LIG     1      16.834  32.675  12.266  1.00  0.00     0.167 HD
ENDBRANCH   7   9
ENDBRANCH   1   7
TORSDOF 2
ENDMDL
MODEL 15
REMARK VINA RESULT:      -5.3     10.069     11.266
REMARK  2 active torsions:
REMARK  status: ('A' for Active; 'I' for Inactive)
REMARK    1  A    between atoms: O_1  and  C_2 
REMARK    2  A    between atoms: C_2  and  C_3 
ROOT
HETATM    1  C   LIG     1      14.439  31.395  15.839  1.00  0.00     0.037 A 
HETATM    2  C   LIG     1      14.349  30.491  14.763  1.00  0.00     0.018 A 
HETATM    3  C   LIG     1      15.219  30.598  13.675  1.00  0.00     0.001 A 
HETATM    4  C   LIG     1      16.188  31.604  13.647  1.00  0.00     0.000 A 
HETATM    5  C   LIG     1      16.287  32.507  14.709  1.00  0.00     0.001 A 
HETATM    6  C   LIG     1      15.419  32.405  15.800  1.00  0.00     0.018 A 
ENDROOT
BRANCH   1   7
HETATM    7  C   LIG     1      13.521  31.289  16.994  1.00  0.00     0.176 C 
HETATM    8  O   LIG     1      12.440  30.649  16.894  1.00  0.00    -0.646 OA
BRANCH   7   9
HETATM    9  O   LIG     1      13.844  31.897  18.205  1.00  0.00    -0.773 OA
HETATM   10  H   LIG     1      14.773  32.266  18.371  1.00  0.00     0.167 HD
ENDBRANCH   7   9
ENDBRANCH   1   7
TORSDOF 2
ENDMDL
MODEL 16
REMARK VINA RESULT:      -5.2     10.476     11.709
REMARK  2 active torsions:
REMARK  status: ('A' for Active; 'I' for Inactive)
REMARK    1  A    between atoms: O_1  and  C_2 
REMARK    2  A    between atoms: C_2  and  C_3 
ROOT
HETATM    1  C   LIG     1      16.087  32.172  14.174  1.00  0.00     0.037 A 
HETATM    2  C   LIG     1      15.546  31.045  13.525  1.00  0.00     0.018 A 
HETATM    3  C   LIG     1      14.593  30.249  14.167  1.00  0.00     0.001 A 
HETATM    4  C   LIG     1      14.170  30.566  15.459  1.00  0.00     0.000 A 
HETATM    5  C   LIG     1      14.700  31.681  16.114  1.00  0.00     0.001 A 
HETATM    6  C   LIG     1      15.653  32.481  15.476  1.00  0.00     0.018 A 
ENDROOT
BRANCH   1   7
HETATM    7  C   LIG     1      17.096  33.019  13.501  1.00  0.00     0.176 C 
HETATM    8  O   LIG     1      17.289  34.205  13.881  1.00  0.00    -0.646 OA
BRANCH   7   9
HETATM    9  O   LIG     1      17.844  32.512  12.441  1.00  0.00    -0.773 OA
HETATM   10  H   LIG     1      17.479  32.522  11.496  1.00  0.00     0.167 HD
ENDBRANCH   7   9
ENDBRANCH   1   7
TORSDOF 2
ENDMDL
MODEL 17
REMARK VINA RESULT:      -5.2     10.473     11.606
REMARK  2 active torsions:
REMARK  status: ('A' for Active; 'I' for Inactive)
REMARK    1  A    between atoms: O_1  and  C_2 
REMARK    2  A    between atoms: C_2  and  C_3 
ROOT
HETATM    1  C   LIG     1      14.904  31.083  14.848  1.00  0.00     0.037 A 
HETATM    2  C   LIG     1      13.718  30.396  15.171  1.00  0.00     0.018 A 
HETATM    3  C   LIG     1      12.987  30.745  16.310  1.00  0.00     0.001 A 
HETATM    4  C   LIG     1      13.429  31.780  17.138  1.00  0.00     0.000 A 
HETATM    5  C   LIG     1      14.605  32.468  16.828  1.00  0.00     0.001 A 
HETATM    6  C   LIG     1      15.340  32.123  15.689  1.00  0.00     0.018 A 
ENDROOT
BRANCH   1   7
HETATM    7  C   LIG     1      15.683  30.719  13.644  1.00  0.00     0.176 C 
HETATM    8  O   LIG     1      16.468  31.551  13.115  1.00  0.00    -0.646 OA
BRANCH   7   9
HETATM    9  O   LIG     1      15.557  29.450  13.083  1.00  0.00    -0.773 OA
HETATM   10  H   LIG     1      14.711  28.907  13.211  1.00  0.00     0.167 HD
ENDBRANCH   7   9
ENDBRANCH   1   7
TORSDOF 2
ENDMDL
MODEL 18
REMARK VINA RESULT:      -5.1      2.334      3.225
REMARK  2 active torsions:
REMARK  status: ('A' for Active; 'I' for Inactive)
REMARK    1  A    between atoms: O_1  and  C_2 
REMARK    2  A    between atoms: C_2  and  C_3 
ROOT
HETATM    1  C   LIG     1      17.014  36.386  22.133  1.00  0.00     0.037 A 
HETATM    2  C   LIG     1      17.254  37.763  21.957  1.00  0.00     0.018 A 
HETATM    3  C   LIG     1      17.479  38.588  23.062  1.00  0.00     0.001 A 
HETATM    4  C   LIG     1      17.467  38.052  24.352  1.00  0.00     0.000 A 
HETATM    5  C   LIG     1      17.230  36.688  24.539  1.00  0.00     0.001 A 
HETATM    6  C   LIG     1      17.005  35.857  23.436  1.00  0.00     0.018 A 
ENDROOT
BRANCH   1   7
HETATM    7  C   LIG     1      16.775  35.506  20.968  1.00  0.00     0.176 C 
HETATM    8  O   LIG     1      16.136  34.428  21.102  1.00  0.00    -0.646 OA
BRANCH   7   9
HETATM    9  O   LIG     1      17.255  35.862  19.709  1.00  0.00    -0.773 OA
HETATM   10  H   LIG     1      16.673  35.765  18.885  1.00  0.00     0.167 HD
ENDBRANCH   7   9
ENDBRANCH   1   7
TORSDOF 2
ENDMDL
MODEL 19
REMARK VINA RESULT:      -4.7     12.018     13.389
REMARK  2 active torsions:
REMARK  status: ('A' for Active; 'I' for Inactive)
REMARK    1  A    between atoms: O_1  and  C_2 
REMARK    2  A    between atoms: C_2  and  C_3 
ROOT
HETATM    1  C   LIG     1      19.004  34.282  12.096  1.00  0.00     0.037 A 
HETATM    2  C   LIG     1      20.329  34.128  12.545  1.00  0.00     0.018 A 
HETATM    3  C   LIG     1      21.400  34.505  11.730  1.00  0.00     0.001 A 
HETATM    4  C   LIG     1      21.162  35.038  10.461  1.00  0.00     0.000 A 
HETATM    5  C   LIG     1      19.852  35.195  10.005  1.00  0.00     0.001 A 
HETATM    6  C   LIG     1      18.776  34.820  10.816  1.00  0.00     0.018 A 
ENDROOT
BRANCH   1   7
HETATM    7  C   LIG     1      17.865  33.886  12.953  1.00  0.00     0.176 C 
HETATM    8  O   LIG     1      17.405  34.683  13.814  1.00  0.00    -0.646 OA
BRANCH   7   9
HETATM    9  O   LIG     1      17.289  32.625  12.816  1.00  0.00    -0.773 OA
HETATM   10  H   LIG     1      16.909  32.136  13.618  1.00  0.00     0.167 HD
ENDBRANCH   7   9
ENDBRANCH   1   7
TORSDOF 2
ENDMDL
MODEL 20
REMARK VINA RESULT:      -4.3     11.917     13.066
REMARK  2 active torsions:
REMARK  status: ('A' for Active; 'I' for Inactive)
REMARK    1  A    between atoms: O_1  and  C_2 
REMARK    2  A    between atoms: C_2  and  C_3 
ROOT
HETATM    1  C   LIG     1      14.775  29.948  14.351  1.00  0.00     0.037 A 
HETATM    2  C   LIG     1      15.531  28.851  13.896  1.00  0.00     0.018 A 
HETATM    3  C   LIG     1      14.903  27.643  13.578  1.00  0.00     0.001 A 
HETATM    4  C   LIG     1      13.519  27.516  13.711  1.00  0.00     0.000 A 
HETATM    5  C   LIG     1      12.758  28.598  14.162  1.00  0.00     0.001 A 
HETATM    6  C   LIG     1      13.381  29.809  14.481  1.00  0.00     0.018 A 
ENDROOT
BRANCH   1   7
HETATM    7  C   LIG     1      15.432  31.230  14.689  1.00  0.00     0.176 C 
HETATM    8  O   LIG     1      15.042  31.907  15.678  1.00  0.00    -0.646 OA
BRANCH   7   9
HETATM    9  O   LIG     1      16.491  31.701  13.916  1.00  0.00    -0.773 OA
HETATM   10  H   LIG     1      17.257  31.091  13.656  1.00  0.00     0.167 HD
ENDBRANCH   7   9
ENDBRANCH   1   7
TORSDOF 2
ENDMDL
