REMARK  2 active torsions:
REMARK  status: ('A' for Active; 'I' for Inactive)
REMARK    1  A    between atoms: C_2  and  C_3 
REMARK    2  A    between atoms: C_2  and  O_11 
ROOT
HETATM    1  C   UNK     1       0.654   0.149  -0.202  1.00  0.00     0.115 A 
HETATM    2  N   UNK     1      -0.157   1.231  -0.398  1.00  0.00    -0.303 N 
HETATM    3  C   UNK     1      -1.496   1.160  -0.161  1.00  0.00     0.327 A 
HETATM    4  O   UNK     1      -2.221   2.175  -0.342  1.00  0.00    -0.247 OA
HETATM    5  C   UNK     1       0.086  -1.057   0.234  1.00  0.00     0.111 A 
HETATM    6  C   UNK     1      -1.288  -1.109   0.469  1.00  0.00     0.251 A 
HETATM    7  N   UNK     1      -2.053  -0.003   0.272  1.00  0.00    -0.275 N 
HETATM    8  O   UNK     1      -1.819  -2.182   0.860  1.00  0.00    -0.268 OA
HETATM    9  H   UNK     1       0.248   2.137  -0.725  1.00  0.00     0.171 HD
HETATM   10  H   UNK     1      -3.083  -0.048   0.451  1.00  0.00     0.173 HD
ENDROOT
BRANCH   1  11
HETATM   11  C   UNK     1       2.108   0.257  -0.474  1.00  0.00     0.193 C 
HETATM   12  O   UNK     1       2.532   1.174  -1.226  1.00  0.00    -0.645 OA
BRANCH  11  13
HETATM   13  O   UNK     1       3.032  -0.621   0.092  1.00  0.00    -0.772 OA
HETATM   14  H   UNK     1       2.775  -1.313   0.783  1.00  0.00     0.167 HD
ENDBRANCH  11  13
ENDBRANCH   1  11
TORSDOF 2
