MODEL 1
REMARK VINA RESULT:      -6.1      0.000      0.000
REMARK  2 active torsions:
REMARK  status: ('A' for Active; 'I' for Inactive)
REMARK    1  A    between atoms: C_2  and  C_3 
REMARK    2  A    between atoms: C_2  and  O_11 
ROOT
HETATM    1  C   UNK     1      17.666  37.951  22.710  1.00  0.00     0.115 A 
HETATM    2  N   UNK     1      17.279  36.852  21.997  1.00  0.00    -0.303 N 
HETATM    3  C   UNK     1      17.634  36.699  20.691  1.00  0.00     0.327 A 
HETATM    4  O   UNK     1      17.270  35.672  20.057  1.00  0.00    -0.247 OA
HETATM    5  C   UNK     1      18.428  38.942  22.074  1.00  0.00     0.111 A 
HETATM    6  C   UNK     1      18.779  38.767  20.735  1.00  0.00     0.251 A 
HETATM    7  N   UNK     1      18.381  37.651  20.069  1.00  0.00    -0.275 N 
HETATM    8  O   UNK     1      19.461  39.645  20.144  1.00  0.00    -0.268 OA
HETATM    9  H   UNK     1      16.709  36.105  22.454  1.00  0.00     0.171 HD
HETATM   10  H   UNK     1      18.648  37.524  19.066  1.00  0.00     0.173 HD
ENDROOT
BRANCH   1  11
HETATM   11  C   UNK     1      17.259  38.091  24.130  1.00  0.00     0.193 C 
HETATM   12  O   UNK     1      16.035  38.107  24.426  1.00  0.00    -0.645 OA
BRANCH  11  13
HETATM   13  O   UNK     1      18.195  38.191  25.159  1.00  0.00    -0.772 OA
HETATM   14  H   UNK     1      18.228  38.980  25.792  1.00  0.00     0.167 HD
ENDBRANCH  11  13
ENDBRANCH   1  11
TORSDOF 2
ENDMDL
MODEL 2
REMARK VINA RESULT:      -5.9      0.816      2.407
REMARK  2 active torsions:
REMARK  status: ('A' for Active; 'I' for Inactive)
REMARK    1  A    between atoms: C_2  and  C_3 
REMARK    2  A    between atoms: C_2  and  O_11 
ROOT
HETATM    1  C   UNK     1      17.657  37.910  22.672  1.00  0.00     0.115 A 
HETATM    2  N   UNK     1      18.451  38.837  22.057  1.00  0.00    -0.303 N 
HETATM    3  C   UNK     1      18.810  38.702  20.751  1.00  0.00     0.327 A 
HETATM    4  O   UNK     1      19.537  39.575  20.205  1.00  0.00    -0.247 OA
HETATM    5  C   UNK     1      17.225  36.793  21.942  1.00  0.00     0.111 A 
HETATM    6  C   UNK     1      17.606  36.673  20.606  1.00  0.00     0.251 A 
HETATM    7  N   UNK     1      18.386  37.627  20.033  1.00  0.00    -0.275 N 
HETATM    8  O   UNK     1      17.230  35.677  19.932  1.00  0.00    -0.268 OA
HETATM    9  H   UNK     1      18.785  39.674  22.586  1.00  0.00     0.171 HD
HETATM   10  H   UNK     1      18.668  37.531  19.030  1.00  0.00     0.173 HD
ENDROOT
BRANCH   1  11
HETATM   11  C   UNK     1      17.287  38.084  24.098  1.00  0.00     0.193 C 
HETATM   12  O   UNK     1      16.071  38.136  24.422  1.00  0.00    -0.645 OA
BRANCH  11  13
HETATM   13  O   UNK     1      18.249  38.178  25.104  1.00  0.00    -0.772 OA
HETATM   14  H   UNK     1      18.866  38.973  25.196  1.00  0.00     0.167 HD
ENDBRANCH  11  13
ENDBRANCH   1  11
TORSDOF 2
ENDMDL
MODEL 3
REMARK VINA RESULT:      -5.9      2.662      5.052
REMARK  2 active torsions:
REMARK  status: ('A' for Active; 'I' for Inactive)
REMARK    1  A    between atoms: C_2  and  C_3 
REMARK    2  A    between atoms: C_2  and  O_11 
ROOT
HETATM    1  C   UNK     1      16.827  36.244  23.241  1.00  0.00     0.115 A 
HETATM    2  N   UNK     1      16.804  37.521  23.726  1.00  0.00    -0.303 N 
HETATM    3  C   UNK     1      17.122  37.788  25.023  1.00  0.00     0.327 A 
HETATM    4  O   UNK     1      17.100  38.976  25.443  1.00  0.00    -0.247 OA
HETATM    5  C   UNK     1      17.169  35.194  24.106  1.00  0.00     0.111 A 
HETATM    6  C   UNK     1      17.489  35.489  25.431  1.00  0.00     0.251 A 
HETATM    7  N   UNK     1      17.464  36.777  25.865  1.00  0.00    -0.275 N 
HETATM    8  O   UNK     1      17.798  34.562  26.225  1.00  0.00    -0.268 OA
HETATM    9  H   UNK     1      16.549  38.316  23.097  1.00  0.00     0.171 HD
HETATM   10  H   UNK     1      17.706  36.992  26.860  1.00  0.00     0.173 HD
ENDROOT
BRANCH   1  11
HETATM   11  C   UNK     1      16.471  35.985  21.825  1.00  0.00     0.193 C 
HETATM   12  O   UNK     1      17.385  35.864  20.967  1.00  0.00    -0.645 OA
BRANCH  11  13
HETATM   13  O   UNK     1      15.146  35.855  21.409  1.00  0.00    -0.772 OA
HETATM   14  H   UNK     1      14.398  35.601  22.040  1.00  0.00     0.167 HD
ENDBRANCH  11  13
ENDBRANCH   1  11
TORSDOF 2
ENDMDL
MODEL 4
REMARK VINA RESULT:      -5.9      7.060      9.286
REMARK  2 active torsions:
REMARK  status: ('A' for Active; 'I' for Inactive)
REMARK    1  A    between atoms: C_2  and  C_3 
REMARK    2  A    between atoms: C_2  and  O_11 
ROOT
HETATM    1  C   UNK     1      15.623  32.301  16.107  1.00  0.00     0.115 A 
HETATM    2  N   UNK     1      15.861  32.784  17.363  1.00  0.00    -0.303 N 
HETATM    3  C   UNK     1      15.003  32.532  18.389  1.00  0.00     0.327 A 
HETATM    4  O   UNK     1      15.250  32.982  19.540  1.00  0.00    -0.247 OA
HETATM    5  C   UNK     1      14.462  31.549  15.876  1.00  0.00     0.111 A 
HETATM    6  C   UNK     1      13.595  31.304  16.941  1.00  0.00     0.251 A 
HETATM    7  N   UNK     1      13.880  31.794  18.176  1.00  0.00    -0.275 N 
HETATM    8  O   UNK     1      12.546  30.631  16.756  1.00  0.00    -0.268 OA
HETATM    9  H   UNK     1      16.720  33.349  17.553  1.00  0.00     0.171 HD
HETATM   10  H   UNK     1      13.226  31.606  18.971  1.00  0.00     0.173 HD
ENDROOT
BRANCH   1  11
HETATM   11  C   UNK     1      16.575  32.598  15.009  1.00  0.00     0.193 C 
HETATM   12  O   UNK     1      16.133  32.884  13.865  1.00  0.00    -0.645 OA
BRANCH  11  13
HETATM   13  O   UNK     1      17.956  32.585  15.206  1.00  0.00    -0.772 OA
HETATM   14  H   UNK     1      18.531  33.407  15.086  1.00  0.00     0.167 HD
ENDBRANCH  11  13
ENDBRANCH   1  11
TORSDOF 2
ENDMDL
MODEL 5
REMARK VINA RESULT:      -5.8      2.617      3.735
REMARK  2 active torsions:
REMARK  status: ('A' for Active; 'I' for Inactive)
REMARK    1  A    between atoms: C_2  and  C_3 
REMARK    2  A    between atoms: C_2  and  O_11 
ROOT
HETATM    1  C   UNK     1      17.283  36.261  24.564  1.00  0.00     0.115 A 
HETATM    2  N   UNK     1      16.791  37.504  24.286  1.00  0.00    -0.303 N 
HETATM    3  C   UNK     1      16.181  37.771  23.098  1.00  0.00     0.327 A 
HETATM    4  O   UNK     1      15.729  38.925  22.869  1.00  0.00    -0.247 OA
HETATM    5  C   UNK     1      17.169  35.252  23.596  1.00  0.00     0.111 A 
HETATM    6  C   UNK     1      16.543  35.547  22.385  1.00  0.00     0.251 A 
HETATM    7  N   UNK     1      16.058  36.796  22.158  1.00  0.00    -0.275 N 
HETATM    8  O   UNK     1      16.431  34.656  21.502  1.00  0.00    -0.268 OA
HETATM    9  H   UNK     1      16.869  38.269  24.993  1.00  0.00     0.171 HD
HETATM   10  H   UNK     1      15.588  37.010  21.248  1.00  0.00     0.173 HD
ENDROOT
BRANCH   1  11
HETATM   11  C   UNK     1      17.946  36.003  25.865  1.00  0.00     0.193 C 
HETATM   12  O   UNK     1      17.886  34.853  26.375  1.00  0.00    -0.645 OA
BRANCH  11  13
HETATM   13  O   UNK     1      18.655  36.996  26.542  1.00  0.00    -0.772 OA
HETATM   14  H   UNK     1      19.252  37.659  26.068  1.00  0.00     0.167 HD
ENDBRANCH  11  13
ENDBRANCH   1  11
TORSDOF 2
ENDMDL
MODEL 6
REMARK VINA RESULT:      -5.8      1.087      3.775
REMARK  2 active torsions:
REMARK  status: ('A' for Active; 'I' for Inactive)
REMARK    1  A    between atoms: C_2  and  C_3 
REMARK    2  A    between atoms: C_2  and  O_11 
ROOT
HETATM    1  C   UNK     1      18.405  38.359  20.826  1.00  0.00     0.115 A 
HETATM    2  N   UNK     1      18.019  37.069  20.598  1.00  0.00    -0.303 N 
HETATM    3  C   UNK     1      17.239  36.399  21.491  1.00  0.00     0.327 A 
HETATM    4  O   UNK     1      16.890  35.211  21.254  1.00  0.00    -0.247 OA
HETATM    5  C   UNK     1      18.002  38.991  22.011  1.00  0.00     0.111 A 
HETATM    6  C   UNK     1      17.206  38.286  22.914  1.00  0.00     0.251 A 
HETATM    7  N   UNK     1      16.836  37.008  22.638  1.00  0.00    -0.275 N 
HETATM    8  O   UNK     1      16.833  38.834  23.985  1.00  0.00    -0.268 OA
HETATM    9  H   UNK     1      18.312  36.581  19.722  1.00  0.00     0.171 HD
HETATM   10  H   UNK     1      16.237  36.485  23.319  1.00  0.00     0.173 HD
ENDROOT
BRANCH   1  11
HETATM   11  C   UNK     1      19.259  39.060  19.836  1.00  0.00     0.193 C 
HETATM   12  O   UNK     1      20.512  39.007  19.949  1.00  0.00    -0.645 OA
BRANCH  11  13
HETATM   13  O   UNK     1      18.716  39.771  18.765  1.00  0.00    -0.772 OA
HETATM   14  H   UNK     1      19.050  39.668  17.817  1.00  0.00     0.167 HD
ENDBRANCH  11  13
ENDBRANCH   1  11
TORSDOF 2
ENDMDL
MODEL 7
REMARK VINA RESULT:      -5.7      2.696      4.502
REMARK  2 active torsions:
REMARK  status: ('A' for Active; 'I' for Inactive)
REMARK    1  A    between atoms: C_2  and  C_3 
REMARK    2  A    between atoms: C_2  and  O_11 
ROOT
HETATM    1  C   UNK     1      16.880  36.260  23.254  1.00  0.00     0.115 A 
HETATM    2  N   UNK     1      17.210  35.254  24.118  1.00  0.00    -0.303 N 
HETATM    3  C   UNK     1      17.489  35.511  25.425  1.00  0.00     0.327 A 
HETATM    4  O   UNK     1      17.783  34.564  26.203  1.00  0.00    -0.247 OA
HETATM    5  C   UNK     1      16.847  37.579  23.727  1.00  0.00     0.111 A 
HETATM    6  C   UNK     1      17.138  37.822  25.070  1.00  0.00     0.251 A 
HETATM    7  N   UNK     1      17.449  36.787  25.895  1.00  0.00    -0.275 N 
HETATM    8  O   UNK     1      17.116  38.999  25.516  1.00  0.00    -0.268 OA
HETATM    9  H   UNK     1      17.242  34.264  23.782  1.00  0.00     0.171 HD
HETATM   10  H   UNK     1      17.665  36.975  26.901  1.00  0.00     0.173 HD
ENDROOT
BRANCH   1  11
HETATM   11  C   UNK     1      16.587  35.947  21.834  1.00  0.00     0.193 C 
HETATM   12  O   UNK     1      15.426  35.584  21.506  1.00  0.00    -0.645 OA
BRANCH  11  13
HETATM   13  O   UNK     1      17.557  36.058  20.838  1.00  0.00    -0.772 OA
HETATM   14  H   UNK     1      18.416  35.524  20.852  1.00  0.00     0.167 HD
ENDBRANCH  11  13
ENDBRANCH   1  11
TORSDOF 2
ENDMDL
MODEL 8
REMARK VINA RESULT:      -5.6      1.529      4.392
REMARK  2 active torsions:
REMARK  status: ('A' for Active; 'I' for Inactive)
REMARK    1  A    between atoms: C_2  and  C_3 
REMARK    2  A    between atoms: C_2  and  O_11 
ROOT
HETATM    1  C   UNK     1      18.547  38.392  20.469  1.00  0.00     0.115 A 
HETATM    2  N   UNK     1      17.987  39.142  21.465  1.00  0.00    -0.303 N 
HETATM    3  C   UNK     1      17.147  38.585  22.379  1.00  0.00     0.327 A 
HETATM    4  O   UNK     1      16.650  39.297  23.293  1.00  0.00    -0.247 OA
HETATM    5  C   UNK     1      18.229  37.028  20.384  1.00  0.00     0.111 A 
HETATM    6  C   UNK     1      17.364  36.477  21.330  1.00  0.00     0.251 A 
HETATM    7  N   UNK     1      16.842  37.261  22.310  1.00  0.00    -0.275 N 
HETATM    8  O   UNK     1      17.065  35.255  21.272  1.00  0.00    -0.268 OA
HETATM    9  H   UNK     1      18.210  40.160  21.542  1.00  0.00     0.171 HD
HETATM   10  H   UNK     1      16.195  36.841  23.017  1.00  0.00     0.173 HD
ENDROOT
BRANCH   1  11
HETATM   11  C   UNK     1      19.455  39.029  19.485  1.00  0.00     0.193 C 
HETATM   12  O   UNK     1      20.701  38.920  19.629  1.00  0.00    -0.645 OA
BRANCH  11  13
HETATM   13  O   UNK     1      18.971  39.740  18.387  1.00  0.00    -0.772 OA
HETATM   14  H   UNK     1      18.329  40.516  18.478  1.00  0.00     0.167 HD
ENDBRANCH  11  13
ENDBRANCH   1  11
TORSDOF 2
ENDMDL
MODEL 9
REMARK VINA RESULT:      -5.6      1.564      2.984
REMARK  2 active torsions:
REMARK  status: ('A' for Active; 'I' for Inactive)
REMARK    1  A    between atoms: C_2  and  C_3 
REMARK    2  A    between atoms: C_2  and  O_11 
ROOT
HETATM    1  C   UNK     1      16.817  37.183  22.069  1.00  0.00     0.115 A 
HETATM    2  N   UNK     1      17.900  37.689  21.407  1.00  0.00    -0.303 N 
HETATM    3  C   UNK     1      18.328  37.142  20.236  1.00  0.00     0.327 A 
HETATM    4  O   UNK     1      19.325  37.632  19.640  1.00  0.00    -0.247 OA
HETATM    5  C   UNK     1      16.151  36.071  21.535  1.00  0.00     0.111 A 
HETATM    6  C   UNK     1      16.607  35.525  20.335  1.00  0.00     0.251 A 
HETATM    7  N   UNK     1      17.681  36.069  19.705  1.00  0.00    -0.275 N 
HETATM    8  O   UNK     1      16.024  34.525  19.837  1.00  0.00    -0.268 OA
HETATM    9  H   UNK     1      18.410  38.516  21.791  1.00  0.00     0.171 HD
HETATM   10  H   UNK     1      18.017  35.656  18.805  1.00  0.00     0.173 HD
ENDROOT
BRANCH   1  11
HETATM   11  C   UNK     1      16.379  37.798  23.346  1.00  0.00     0.193 C 
HETATM   12  O   UNK     1      17.240  38.129  24.203  1.00  0.00    -0.645 OA
BRANCH  11  13
HETATM   13  O   UNK     1      15.034  38.039  23.626  1.00  0.00    -0.772 OA
HETATM   14  H   UNK     1      14.333  37.310  23.603  1.00  0.00     0.167 HD
ENDBRANCH  11  13
ENDBRANCH   1  11
TORSDOF 2
ENDMDL
MODEL 10
REMARK VINA RESULT:      -5.6      2.321      3.988
REMARK  2 active torsions:
REMARK  status: ('A' for Active; 'I' for Inactive)
REMARK    1  A    between atoms: C_2  and  C_3 
REMARK    2  A    between atoms: C_2  and  O_11 
ROOT
HETATM    1  C   UNK     1      16.180  35.408  21.052  1.00  0.00     0.115 A 
HETATM    2  N   UNK     1      17.165  35.570  20.120  1.00  0.00    -0.303 N 
HETATM    3  C   UNK     1      18.023  36.627  20.177  1.00  0.00     0.327 A 
HETATM    4  O   UNK     1      18.929  36.749  19.310  1.00  0.00    -0.247 OA
HETATM    5  C   UNK     1      16.044  36.361  22.072  1.00  0.00     0.111 A 
HETATM    6  C   UNK     1      16.932  37.437  22.112  1.00  0.00     0.251 A 
HETATM    7  N   UNK     1      17.905  37.549  21.170  1.00  0.00    -0.275 N 
HETATM    8  O   UNK     1      16.828  38.304  23.019  1.00  0.00    -0.268 OA
HETATM    9  H   UNK     1      17.280  34.872  19.351  1.00  0.00     0.171 HD
HETATM   10  H   UNK     1      18.568  38.358  21.205  1.00  0.00     0.173 HD
ENDROOT
BRANCH   1  11
HETATM   11  C   UNK     1      15.259  34.249  20.958  1.00  0.00     0.193 C 
HETATM   12  O   UNK     1      15.605  33.233  20.300  1.00  0.00    -0.645 OA
BRANCH  11  13
HETATM   13  O   UNK     1      14.017  34.240  21.593  1.00  0.00    -0.772 OA
HETATM   14  H   UNK     1      13.616  33.404  21.997  1.00  0.00     0.167 HD
ENDBRANCH  11  13
ENDBRANCH   1  11
TORSDOF 2
ENDMDL
MODEL 11
REMARK VINA RESULT:      -5.6      8.096     10.157
REMARK  2 active torsions:
REMARK  status: ('A' for Active; 'I' for Inactive)
REMARK    1  A    between atoms: C_2  and  C_3 
REMARK    2  A    between atoms: C_2  and  O_11 
ROOT
HETATM    1  C   UNK     1      14.707  31.643  16.049  1.00  0.00     0.115 A 
HETATM    2  N   UNK     1      15.641  32.012  15.123  1.00  0.00    -0.303 N 
HETATM    3  C   UNK     1      15.717  31.393  13.913  1.00  0.00     0.327 A 
HETATM    4  O   UNK     1      16.583  31.758  13.073  1.00  0.00    -0.247 OA
HETATM    5  C   UNK     1      13.826  30.594  15.746  1.00  0.00     0.111 A 
HETATM    6  C   UNK     1      13.922  29.972  14.502  1.00  0.00     0.251 A 
HETATM    7  N   UNK     1      14.860  30.382  13.608  1.00  0.00    -0.275 N 
HETATM    8  O   UNK     1      13.142  29.027  14.209  1.00  0.00    -0.268 OA
HETATM    9  H   UNK     1      16.308  32.790  15.332  1.00  0.00     0.171 HD
HETATM   10  H   UNK     1      14.926  29.912  12.675  1.00  0.00     0.173 HD
ENDROOT
BRANCH   1  11
HETATM   11  C   UNK     1      14.654  32.334  17.361  1.00  0.00     0.193 C 
HETATM   12  O   UNK     1      15.392  33.334  17.566  1.00  0.00    -0.645 OA
BRANCH  11  13
HETATM   13  O   UNK     1      13.795  31.920  18.379  1.00  0.00    -0.772 OA
HETATM   14  H   UNK     1      13.983  31.111  18.956  1.00  0.00     0.167 HD
ENDBRANCH  11  13
ENDBRANCH   1  11
TORSDOF 2
ENDMDL
MODEL 12
REMARK VINA RESULT:      -5.5      8.099      9.623
REMARK  2 active torsions:
REMARK  status: ('A' for Active; 'I' for Inactive)
REMARK    1  A    between atoms: C_2  and  C_3 
REMARK    2  A    between atoms: C_2  and  O_11 
ROOT
HETATM    1  C   UNK     1      14.880  31.818  16.178  1.00  0.00     0.115 A 
HETATM    2  N   UNK     1      14.080  30.773  15.813  1.00  0.00    -0.303 N 
HETATM    3  C   UNK     1      14.191  30.196  14.584  1.00  0.00     0.327 A 
HETATM    4  O   UNK     1      13.446  29.227  14.275  1.00  0.00    -0.247 OA
HETATM    5  C   UNK     1      15.817  32.311  15.259  1.00  0.00     0.111 A 
HETATM    6  C   UNK     1      15.914  31.707  14.005  1.00  0.00     0.251 A 
HETATM    7  N   UNK     1      15.105  30.661  13.691  1.00  0.00    -0.275 N 
HETATM    8  O   UNK     1      16.748  32.134  13.164  1.00  0.00    -0.268 OA
HETATM    9  H   UNK     1      13.374  30.394  16.484  1.00  0.00     0.171 HD
HETATM   10  H   UNK     1      15.183  30.212  12.749  1.00  0.00     0.173 HD
ENDROOT
BRANCH   1  11
HETATM   11  C   UNK     1      14.730  32.428  17.522  1.00  0.00     0.193 C 
HETATM   12  O   UNK     1      15.397  33.456  17.814  1.00  0.00    -0.645 OA
BRANCH  11  13
HETATM   13  O   UNK     1      13.857  31.907  18.476  1.00  0.00    -0.772 OA
HETATM   14  H   UNK     1      13.255  31.117  18.291  1.00  0.00     0.167 HD
ENDBRANCH  11  13
ENDBRANCH   1  11
TORSDOF 2
ENDMDL
MODEL 13
REMARK VINA RESULT:      -5.5      9.590     10.806
REMARK  2 active torsions:
REMARK  status: ('A' for Active; 'I' for Inactive)
REMARK    1  A    between atoms: C_2  and  C_3 
REMARK    2  A    between atoms: C_2  and  O_11 
ROOT
HETATM    1  C   UNK     1      13.792  30.846  15.860  1.00  0.00     0.115 A 
HETATM    2  N   UNK     1      13.077  29.778  15.398  1.00  0.00    -0.303 N 
HETATM    3  C   UNK     1      13.440  29.126  14.259  1.00  0.00     0.327 A 
HETATM    4  O   UNK     1      12.768  28.138  13.858  1.00  0.00    -0.247 OA
HETATM    5  C   UNK     1      14.908  31.284  15.133  1.00  0.00     0.111 A 
HETATM    6  C   UNK     1      15.262  30.604  13.967  1.00  0.00     0.251 A 
HETATM    7  N   UNK     1      14.528  29.538  13.553  1.00  0.00    -0.275 N 
HETATM    8  O   UNK     1      16.261  30.981  13.298  1.00  0.00    -0.268 OA
HETATM    9  H   UNK     1      12.240  29.439  15.925  1.00  0.00     0.171 HD
HETATM   10  H   UNK     1      14.799  29.032  12.679  1.00  0.00     0.173 HD
ENDROOT
BRANCH   1  11
HETATM   11  C   UNK     1      13.367  31.538  17.101  1.00  0.00     0.193 C 
HETATM   12  O   UNK     1      14.069  31.434  18.141  1.00  0.00    -0.645 OA
BRANCH  11  13
HETATM   13  O   UNK     1      12.213  32.320  17.153  1.00  0.00    -0.772 OA
HETATM   14  H   UNK     1      11.349  32.049  16.702  1.00  0.00     0.167 HD
ENDBRANCH  11  13
ENDBRANCH   1  11
TORSDOF 2
ENDMDL
MODEL 14
REMARK VINA RESULT:      -5.5      9.922     12.015
REMARK  2 active torsions:
REMARK  status: ('A' for Active; 'I' for Inactive)
REMARK    1  A    between atoms: C_2  and  C_3 
REMARK    2  A    between atoms: C_2  and  O_11 
ROOT
HETATM    1  C   UNK     1      13.360  29.432  14.452  1.00  0.00     0.115 A 
HETATM    2  N   UNK     1      12.750  30.058  15.502  1.00  0.00    -0.303 N 
HETATM    3  C   UNK     1      13.360  31.079  16.166  1.00  0.00     0.327 A 
HETATM    4  O   UNK     1      12.772  31.645  17.126  1.00  0.00    -0.247 OA
HETATM    5  C   UNK     1      14.645  29.843  14.069  1.00  0.00     0.111 A 
HETATM    6  C   UNK     1      15.254  30.889  14.763  1.00  0.00     0.251 A 
HETATM    7  N   UNK     1      14.602  31.490  15.793  1.00  0.00    -0.275 N 
HETATM    8  O   UNK     1      16.408  31.273  14.436  1.00  0.00    -0.268 OA
HETATM    9  H   UNK     1      11.793  29.764  15.804  1.00  0.00     0.171 HD
HETATM   10  H   UNK     1      15.063  32.275  16.309  1.00  0.00     0.173 HD
ENDROOT
BRANCH   1  11
HETATM   11  C   UNK     1      12.671  28.320  13.754  1.00  0.00     0.193 C 
HETATM   12  O   UNK     1      13.229  27.193  13.680  1.00  0.00    -0.645 OA
BRANCH  11  13
HETATM   13  O   UNK     1      11.408  28.476  13.184  1.00  0.00    -0.772 OA
HETATM   14  H   UNK     1      10.735  29.149  13.525  1.00  0.00     0.167 HD
ENDBRANCH  11  13
ENDBRANCH   1  11
TORSDOF 2
ENDMDL
MODEL 15
REMARK VINA RESULT:      -5.4      8.291      9.110
REMARK  2 active torsions:
REMARK  status: ('A' for Active; 'I' for Inactive)
REMARK    1  A    between atoms: C_2  and  C_3 
REMARK    2  A    between atoms: C_2  and  O_11 
ROOT
HETATM    1  C   UNK     1      14.691  31.915  16.276  1.00  0.00     0.115 A 
HETATM    2  N   UNK     1      14.797  31.065  15.212  1.00  0.00    -0.303 N 
HETATM    3  C   UNK     1      15.682  31.304  14.204  1.00  0.00     0.327 A 
HETATM    4  O   UNK     1      15.766  30.500  13.238  1.00  0.00    -0.247 OA
HETATM    5  C   UNK     1      15.498  33.061  16.315  1.00  0.00     0.111 A 
HETATM    6  C   UNK     1      16.396  33.289  15.272  1.00  0.00     0.251 A 
HETATM    7  N   UNK     1      16.475  32.408  14.240  1.00  0.00    -0.275 N 
HETATM    8  O   UNK     1      17.130  34.313  15.286  1.00  0.00    -0.268 OA
HETATM    9  H   UNK     1      14.202  30.207  15.165  1.00  0.00     0.171 HD
HETATM   10  H   UNK     1      17.152  32.584  13.461  1.00  0.00     0.173 HD
ENDROOT
BRANCH   1  11
HETATM   11  C   UNK     1      13.714  31.629  17.355  1.00  0.00     0.193 C 
HETATM   12  O   UNK     1      14.130  31.305  18.499  1.00  0.00    -0.645 OA
BRANCH  11  13
HETATM   13  O   UNK     1      12.338  31.721  17.148  1.00  0.00    -0.772 OA
HETATM   14  H   UNK     1      11.890  31.394  16.303  1.00  0.00     0.167 HD
ENDBRANCH  11  13
ENDBRANCH   1  11
TORSDOF 2
ENDMDL
MODEL 16
REMARK VINA RESULT:      -5.4      1.510      1.694
REMARK  2 active torsions:
REMARK  status: ('A' for Active; 'I' for Inactive)
REMARK    1  A    between atoms: C_2  and  C_3 
REMARK    2  A    between atoms: C_2  and  O_11 
ROOT
HETATM    1  C   UNK     1      16.951  37.492  22.186  1.00  0.00     0.115 A 
HETATM    2  N   UNK     1      16.304  36.314  21.939  1.00  0.00    -0.303 N 
HETATM    3  C   UNK     1      16.638  35.537  20.872  1.00  0.00     0.327 A 
HETATM    4  O   UNK     1      16.031  34.451  20.670  1.00  0.00    -0.247 OA
HETATM    5  C   UNK     1      17.964  37.908  21.311  1.00  0.00     0.111 A 
HETATM    6  C   UNK     1      18.290  37.098  20.223  1.00  0.00     0.251 A 
HETATM    7  N   UNK     1      17.627  35.929  20.024  1.00  0.00    -0.275 N 
HETATM    8  O   UNK     1      19.197  37.454  19.423  1.00  0.00    -0.268 OA
HETATM    9  H   UNK     1      15.544  35.989  22.578  1.00  0.00     0.171 HD
HETATM   10  H   UNK     1      17.877  35.325  19.206  1.00  0.00     0.173 HD
ENDROOT
BRANCH   1  11
HETATM   11  C   UNK     1      16.560  38.318  23.354  1.00  0.00     0.193 C 
HETATM   12  O   UNK     1      16.178  37.754  24.413  1.00  0.00    -0.645 OA
BRANCH  11  13
HETATM   13  O   UNK     1      16.615  39.711  23.324  1.00  0.00    -0.772 OA
HETATM   14  H   UNK     1      16.784  40.233  22.474  1.00  0.00     0.167 HD
ENDBRANCH  11  13
ENDBRANCH   1  11
TORSDOF 2
ENDMDL
MODEL 17
REMARK VINA RESULT:      -5.4      7.397      9.662
REMARK  2 active torsions:
REMARK  status: ('A' for Active; 'I' for Inactive)
REMARK    1  A    between atoms: C_2  and  C_3 
REMARK    2  A    between atoms: C_2  and  O_11 
ROOT
HETATM    1  C   UNK     1      14.371  31.429  15.712  1.00  0.00     0.115 A 
HETATM    2  N   UNK     1      14.381  32.379  16.694  1.00  0.00    -0.303 N 
HETATM    3  C   UNK     1      15.371  33.311  16.762  1.00  0.00     0.327 A 
HETATM    4  O   UNK     1      15.353  34.182  17.673  1.00  0.00    -0.247 OA
HETATM    5  C   UNK     1      15.412  31.410  14.772  1.00  0.00     0.111 A 
HETATM    6  C   UNK     1      16.418  32.372  14.861  1.00  0.00     0.251 A 
HETATM    7  N   UNK     1      16.379  33.306  15.848  1.00  0.00    -0.275 N 
HETATM    8  O   UNK     1      17.363  32.373  14.029  1.00  0.00    -0.268 OA
HETATM    9  H   UNK     1      13.615  32.407  17.404  1.00  0.00     0.171 HD
HETATM   10  H   UNK     1      17.136  34.026  15.909  1.00  0.00     0.173 HD
ENDROOT
BRANCH   1  11
HETATM   11  C   UNK     1      13.280  30.424  15.667  1.00  0.00     0.193 C 
HETATM   12  O   UNK     1      13.193  29.647  14.680  1.00  0.00    -0.645 OA
BRANCH  11  13
HETATM   13  O   UNK     1      12.349  30.299  16.698  1.00  0.00    -0.772 OA
HETATM   14  H   UNK     1      12.500  29.702  17.500  1.00  0.00     0.167 HD
ENDBRANCH  11  13
ENDBRANCH   1  11
TORSDOF 2
ENDMDL
MODEL 18
REMARK VINA RESULT:      -5.4      1.967      3.925
REMARK  2 active torsions:
REMARK  status: ('A' for Active; 'I' for Inactive)
REMARK    1  A    between atoms: C_2  and  C_3 
REMARK    2  A    between atoms: C_2  and  O_11 
ROOT
HETATM    1  C   UNK     1      16.164  35.763  21.464  1.00  0.00     0.115 A 
HETATM    2  N   UNK     1      15.738  36.399  22.595  1.00  0.00    -0.303 N 
HETATM    3  C   UNK     1      16.327  37.551  23.020  1.00  0.00     0.327 A 
HETATM    4  O   UNK     1      15.910  38.123  24.063  1.00  0.00    -0.247 OA
HETATM    5  C   UNK     1      17.238  36.303  20.742  1.00  0.00     0.111 A 
HETATM    6  C   UNK     1      17.829  37.483  21.195  1.00  0.00     0.251 A 
HETATM    7  N   UNK     1      17.363  38.088  22.320  1.00  0.00    -0.275 N 
HETATM    8  O   UNK     1      18.796  37.986  20.563  1.00  0.00    -0.268 OA
HETATM    9  H   UNK     1      14.941  36.010  23.147  1.00  0.00     0.171 HD
HETATM   10  H   UNK     1      17.809  38.973  22.654  1.00  0.00     0.173 HD
ENDROOT
BRANCH   1  11
HETATM   11  C   UNK     1      15.505  34.507  21.031  1.00  0.00     0.193 C 
HETATM   12  O   UNK     1      14.504  34.081  21.665  1.00  0.00    -0.645 OA
BRANCH  11  13
HETATM   13  O   UNK     1      15.951  33.782  19.925  1.00  0.00    -0.772 OA
HETATM   14  H   UNK     1      15.740  34.053  18.974  1.00  0.00     0.167 HD
ENDBRANCH  11  13
ENDBRANCH   1  11
TORSDOF 2
ENDMDL
MODEL 19
REMARK VINA RESULT:      -5.3      8.271     10.038
REMARK  2 active torsions:
REMARK  status: ('A' for Active; 'I' for Inactive)
REMARK    1  A    between atoms: C_2  and  C_3 
REMARK    2  A    between atoms: C_2  and  O_11 
ROOT
HETATM    1  C   UNK     1      15.698  32.146  15.447  1.00  0.00     0.115 A 
HETATM    2  N   UNK     1      14.673  32.306  16.335  1.00  0.00    -0.303 N 
HETATM    3  C   UNK     1      13.640  31.420  16.386  1.00  0.00     0.327 A 
HETATM    4  O   UNK     1      12.710  31.586  17.221  1.00  0.00    -0.247 OA
HETATM    5  C   UNK     1      15.670  31.057  14.564  1.00  0.00     0.111 A 
HETATM    6  C   UNK     1      14.602  30.162  14.632  1.00  0.00     0.251 A 
HETATM    7  N   UNK     1      13.611  30.355  15.541  1.00  0.00    -0.275 N 
HETATM    8  O   UNK     1      14.557  29.177  13.848  1.00  0.00    -0.268 OA
HETATM    9  H   UNK     1      14.675  33.113  16.999  1.00  0.00     0.171 HD
HETATM   10  H   UNK     1      12.813  29.679  15.587  1.00  0.00     0.173 HD
ENDROOT
BRANCH   1  11
HETATM   11  C   UNK     1      16.806  33.132  15.412  1.00  0.00     0.193 C 
HETATM   12  O   UNK     1      17.972  32.746  15.135  1.00  0.00    -0.645 OA
BRANCH  11  13
HETATM   13  O   UNK     1      16.596  34.488  15.664  1.00  0.00    -0.772 OA
HETATM   14  H   UNK     1      15.817  34.826  16.213  1.00  0.00     0.167 HD
ENDBRANCH  11  13
ENDBRANCH   1  11
TORSDOF 2
ENDMDL
MODEL 20
REMARK VINA RESULT:      -5.2      8.059     10.191
REMARK  2 active torsions:
REMARK  status: ('A' for Active; 'I' for Inactive)
REMARK    1  A    between atoms: C_2  and  C_3 
REMARK    2  A    between atoms: C_2  and  O_11 
ROOT
HETATM    1  C   UNK     1      14.974  31.017  14.995  1.00  0.00     0.115 A 
HETATM    2  N   UNK     1      14.337  30.924  16.200  1.00  0.00    -0.303 N 
HETATM    3  C   UNK     1      14.505  31.874  17.161  1.00  0.00     0.327 A 
HETATM    4  O   UNK     1      13.899  31.769  18.262  1.00  0.00    -0.247 OA
HETATM    5  C   UNK     1      15.828  32.104  14.759  1.00  0.00     0.111 A 
HETATM    6  C   UNK     1      15.988  33.066  15.758  1.00  0.00     0.251 A 
HETATM    7  N   UNK     1      15.323  32.937  16.936  1.00  0.00    -0.275 N 
HETATM    8  O   UNK     1      16.750  34.050  15.567  1.00  0.00    -0.268 OA
HETATM    9  H   UNK     1      13.699  30.120  16.395  1.00  0.00     0.171 HD
HETATM   10  H   UNK     1      15.446  33.662  17.681  1.00  0.00     0.173 HD
ENDROOT
BRANCH   1  11
HETATM   11  C   UNK     1      14.775  29.963  13.971  1.00  0.00     0.193 C 
HETATM   12  O   UNK     1      15.702  29.703  13.160  1.00  0.00    -0.645 OA
BRANCH  11  13
HETATM   13  O   UNK     1      13.590  29.233  13.885  1.00  0.00    -0.772 OA
HETATM   14  H   UNK     1      12.812  29.378  14.514  1.00  0.00     0.167 HD
ENDBRANCH  11  13
ENDBRANCH   1  11
TORSDOF 2
ENDMDL
