REMARK  2 active torsions:
REMARK  status: ('A' for Active; 'I' for Inactive)
REMARK    1  A    between atoms: O_1  and  C_2 
REMARK    2  A    between atoms: C_2  and  C_3 
ROOT
HETATM    1  C   LIG     1       0.590   0.166   0.231  1.00  0.00     0.037 A 
HETATM    2  C   LIG     1      -0.271   1.278   0.162  1.00  0.00     0.018 A 
HETATM    3  C   LIG     1      -1.657   1.099   0.148  1.00  0.00     0.001 A 
HETATM    4  C   LIG     1      -2.199  -0.187   0.202  1.00  0.00     0.000 A 
HETATM    5  C   LIG     1      -1.355  -1.298   0.270  1.00  0.00     0.001 A 
HETATM    6  C   LIG     1       0.033  -1.125   0.285  1.00  0.00     0.018 A 
ENDROOT
BRANCH   1   7
HETATM    7  C   LIG     1       2.058   0.347   0.246  1.00  0.00     0.176 C 
HETATM    8  O   LIG     1       2.560   1.502   0.198  1.00  0.00    -0.646 OA
BRANCH   7   9
HETATM    9  O   LIG     1       2.901  -0.760   0.314  1.00  0.00    -0.773 OA
HETATM   10  H   LIG     1       3.908  -0.647   0.325  1.00  0.00     0.167 HD
ENDBRANCH   7   9
ENDBRANCH   1   7
TORSDOF 2
