MODEL 1
REMARK VINA RESULT:      -6.0      0.000      0.000
REMARK  0 active torsions:
REMARK  status: ('A' for Active; 'I' for Inactive)
ROOT
HETATM    1  S   LIG     1      16.502  35.021  21.767  1.00  0.00    -0.058 SA
HETATM    2  C   LIG     1      16.756  36.348  22.702  1.00  0.00     0.134 A 
HETATM    3  C   LIG     1      17.166  36.222  24.037  1.00  0.00     0.142 A 
HETATM    4  C   LIG     1      17.367  37.393  24.787  1.00  0.00     0.182 A 
HETATM    5  N   LIG     1      17.166  38.608  24.218  1.00  0.00    -0.222 NA
HETATM    6  C   LIG     1      16.769  38.711  22.922  1.00  0.00     0.210 A 
HETATM    7  N   LIG     1      16.566  37.591  22.175  1.00  0.00    -0.340 N 
HETATM    8  N   LIG     1      17.764  37.298  26.083  1.00  0.00    -0.238 NA
HETATM    9  C   LIG     1      17.969  36.086  26.665  1.00  0.00     0.138 A 
HETATM   10  C   LIG     1      17.770  34.920  25.921  1.00  0.00     0.137 A 
HETATM   11  N   LIG     1      17.373  35.011  24.624  1.00  0.00    -0.253 NA
HETATM   12  H   LIG     1      16.261  37.700  21.181  1.00  0.00     0.167 HD
ENDROOT
TORSDOF 0
ENDMDL
MODEL 2
REMARK VINA RESULT:      -6.0      1.738      3.301
REMARK  0 active torsions:
REMARK  status: ('A' for Active; 'I' for Inactive)
ROOT
HETATM    1  S   LIG     1      18.033  34.869  26.257  1.00  0.00    -0.058 SA
HETATM    2  C   LIG     1      17.588  36.247  25.482  1.00  0.00     0.134 A 
HETATM    3  C   LIG     1      17.166  36.219  24.145  1.00  0.00     0.142 A 
HETATM    4  C   LIG     1      16.799  37.431  23.535  1.00  0.00     0.182 A 
HETATM    5  N   LIG     1      16.855  38.590  24.238  1.00  0.00    -0.222 NA
HETATM    6  C   LIG     1      17.265  38.598  25.533  1.00  0.00     0.210 A 
HETATM    7  N   LIG     1      17.628  37.437  26.146  1.00  0.00    -0.340 N 
HETATM    8  N   LIG     1      16.387  37.431  22.240  1.00  0.00    -0.238 NA
HETATM    9  C   LIG     1      16.326  36.276  21.526  1.00  0.00     0.138 A 
HETATM   10  C   LIG     1      16.691  35.070  22.129  1.00  0.00     0.137 A 
HETATM   11  N   LIG     1      17.104  35.066  23.425  1.00  0.00    -0.253 NA
HETATM   12  H   LIG     1      17.940  37.473  27.144  1.00  0.00     0.167 HD
ENDROOT
TORSDOF 0
ENDMDL
MODEL 3
REMARK VINA RESULT:      -5.4      2.951      4.980
REMARK  0 active torsions:
REMARK  status: ('A' for Active; 'I' for Inactive)
ROOT
HETATM    1  S   LIG     1      17.106  38.163  23.963  1.00  0.00    -0.058 SA
HETATM    2  C   LIG     1      17.179  37.252  22.598  1.00  0.00     0.134 A 
HETATM    3  C   LIG     1      17.928  37.672  21.490  1.00  0.00     0.142 A 
HETATM    4  C   LIG     1      17.953  36.850  20.350  1.00  0.00     0.182 A 
HETATM    5  N   LIG     1      17.263  35.683  20.339  1.00  0.00    -0.222 NA
HETATM    6  C   LIG     1      16.543  35.291  21.423  1.00  0.00     0.210 A 
HETATM    7  N   LIG     1      16.502  36.070  22.539  1.00  0.00    -0.340 N 
HETATM    8  N   LIG     1      18.671  37.235  19.262  1.00  0.00    -0.238 NA
HETATM    9  C   LIG     1      19.366  38.404  19.261  1.00  0.00     0.138 A 
HETATM   10  C   LIG     1      19.344  39.222  20.393  1.00  0.00     0.137 A 
HETATM   11  N   LIG     1      18.626  38.841  21.483  1.00  0.00    -0.253 NA
HETATM   12  H   LIG     1      15.939  35.744  23.358  1.00  0.00     0.167 HD
ENDROOT
TORSDOF 0
ENDMDL
MODEL 4
REMARK VINA RESULT:      -5.4      2.439      4.146
REMARK  0 active torsions:
REMARK  status: ('A' for Active; 'I' for Inactive)
ROOT
HETATM    1  S   LIG     1      16.431  34.969  21.415  1.00  0.00    -0.058 SA
HETATM    2  C   LIG     1      16.878  36.450  21.967  1.00  0.00     0.134 A 
HETATM    3  C   LIG     1      17.771  37.251  21.242  1.00  0.00     0.142 A 
HETATM    4  C   LIG     1      18.117  38.509  21.765  1.00  0.00     0.182 A 
HETATM    5  N   LIG     1      17.590  38.923  22.944  1.00  0.00    -0.222 NA
HETATM    6  C   LIG     1      16.725  38.134  23.633  1.00  0.00     0.210 A 
HETATM    7  N   LIG     1      16.375  36.911  23.148  1.00  0.00    -0.340 N 
HETATM    8  N   LIG     1      18.981  39.304  21.081  1.00  0.00    -0.238 NA
HETATM    9  C   LIG     1      19.516  38.901  19.898  1.00  0.00     0.138 A 
HETATM   10  C   LIG     1      19.174  37.650  19.376  1.00  0.00     0.137 A 
HETATM   11  N   LIG     1      18.310  36.852  20.057  1.00  0.00    -0.253 NA
HETATM   12  H   LIG     1      15.708  36.324  23.700  1.00  0.00     0.167 HD
ENDROOT
TORSDOF 0
ENDMDL
MODEL 5
REMARK VINA RESULT:      -5.3      9.073     10.477
REMARK  0 active torsions:
REMARK  status: ('A' for Active; 'I' for Inactive)
ROOT
HETATM    1  S   LIG     1      14.788  29.872  14.102  1.00  0.00    -0.058 SA
HETATM    2  C   LIG     1      15.049  31.153  15.096  1.00  0.00     0.134 A 
HETATM    3  C   LIG     1      15.964  32.159  14.752  1.00  0.00     0.142 A 
HETATM    4  C   LIG     1      16.146  33.231  15.643  1.00  0.00     0.182 A 
HETATM    5  N   LIG     1      15.444  33.276  16.802  1.00  0.00    -0.222 NA
HETATM    6  C   LIG     1      14.561  32.293  17.120  1.00  0.00     0.210 A 
HETATM    7  N   LIG     1      14.368  31.244  16.274  1.00  0.00    -0.340 N 
HETATM    8  N   LIG     1      17.027  34.217  15.332  1.00  0.00    -0.238 NA
HETATM    9  C   LIG     1      17.736  34.183  14.172  1.00  0.00     0.138 A 
HETATM   10  C   LIG     1      17.557  33.118  13.285  1.00  0.00     0.137 A 
HETATM   11  N   LIG     1      16.676  32.129  13.592  1.00  0.00    -0.253 NA
HETATM   12  H   LIG     1      13.682  30.502  16.544  1.00  0.00     0.167 HD
ENDROOT
TORSDOF 0
ENDMDL
MODEL 6
REMARK VINA RESULT:      -5.3      9.621     11.112
REMARK  0 active torsions:
REMARK  status: ('A' for Active; 'I' for Inactive)
ROOT
HETATM    1  S   LIG     1      14.495  32.347  17.353  1.00  0.00    -0.058 SA
HETATM    2  C   LIG     1      14.949  31.787  15.877  1.00  0.00     0.134 A 
HETATM    3  C   LIG     1      15.919  32.458  15.118  1.00  0.00     0.142 A 
HETATM    4  C   LIG     1      16.266  31.932  13.861  1.00  0.00     0.182 A 
HETATM    5  N   LIG     1      15.669  30.801  13.410  1.00  0.00    -0.222 NA
HETATM    6  C   LIG     1      14.731  30.163  14.160  1.00  0.00     0.210 A 
HETATM    7  N   LIG     1      14.377  30.654  15.379  1.00  0.00    -0.340 N 
HETATM    8  N   LIG     1      17.203  32.563  13.107  1.00  0.00    -0.238 NA
HETATM    9  C   LIG     1      17.809  33.698  13.548  1.00  0.00     0.138 A 
HETATM   10  C   LIG     1      17.465  34.223  14.797  1.00  0.00     0.137 A 
HETATM   11  N   LIG     1      16.528  33.594  15.555  1.00  0.00    -0.253 NA
HETATM   12  H   LIG     1      13.652  30.143  15.934  1.00  0.00     0.167 HD
ENDROOT
TORSDOF 0
ENDMDL
MODEL 7
REMARK VINA RESULT:      -5.3      1.638      2.562
REMARK  0 active torsions:
REMARK  status: ('A' for Active; 'I' for Inactive)
ROOT
HETATM    1  S   LIG     1      17.097  39.183  22.654  1.00  0.00    -0.058 SA
HETATM    2  C   LIG     1      16.994  37.548  22.772  1.00  0.00     0.134 A 
HETATM    3  C   LIG     1      17.293  36.891  23.974  1.00  0.00     0.142 A 
HETATM    4  C   LIG     1      17.187  35.490  24.014  1.00  0.00     0.182 A 
HETATM    5  N   LIG     1      16.803  34.806  22.908  1.00  0.00    -0.222 NA
HETATM    6  C   LIG     1      16.517  35.459  21.751  1.00  0.00     0.210 A 
HETATM    7  N   LIG     1      16.613  36.816  21.687  1.00  0.00    -0.340 N 
HETATM    8  N   LIG     1      17.472  34.830  25.167  1.00  0.00    -0.238 NA
HETATM    9  C   LIG     1      17.857  35.505  26.283  1.00  0.00     0.138 A 
HETATM   10  C   LIG     1      17.963  36.898  26.246  1.00  0.00     0.137 A 
HETATM   11  N   LIG     1      17.679  37.562  25.094  1.00  0.00    -0.253 NA
HETATM   12  H   LIG     1      16.386  37.292  20.783  1.00  0.00     0.167 HD
ENDROOT
TORSDOF 0
ENDMDL
MODEL 8
REMARK VINA RESULT:      -5.2      2.342      3.329
REMARK  0 active torsions:
REMARK  status: ('A' for Active; 'I' for Inactive)
ROOT
HETATM    1  S   LIG     1      16.046  34.757  20.571  1.00  0.00    -0.058 SA
HETATM    2  C   LIG     1      17.085  36.029  20.551  1.00  0.00     0.134 A 
HETATM    3  C   LIG     1      17.169  36.910  21.639  1.00  0.00     0.142 A 
HETATM    4  C   LIG     1      18.076  37.981  21.563  1.00  0.00     0.182 A 
HETATM    5  N   LIG     1      18.846  38.143  20.458  1.00  0.00    -0.222 NA
HETATM    6  C   LIG     1      18.752  37.278  19.414  1.00  0.00     0.210 A 
HETATM    7  N   LIG     1      17.880  36.234  19.462  1.00  0.00    -0.340 N 
HETATM    8  N   LIG     1      18.176  38.849  22.604  1.00  0.00    -0.238 NA
HETATM    9  C   LIG     1      17.410  38.697  23.717  1.00  0.00     0.138 A 
HETATM   10  C   LIG     1      16.506  37.634  23.794  1.00  0.00     0.137 A 
HETATM   11  N   LIG     1      16.404  36.763  22.755  1.00  0.00    -0.253 NA
HETATM   12  H   LIG     1      17.829  35.585  18.643  1.00  0.00     0.167 HD
ENDROOT
TORSDOF 0
ENDMDL
MODEL 9
REMARK VINA RESULT:      -5.2      2.795      3.941
REMARK  0 active torsions:
REMARK  status: ('A' for Active; 'I' for Inactive)
ROOT
HETATM    1  S   LIG     1      17.163  37.962  24.756  1.00  0.00    -0.058 SA
HETATM    2  C   LIG     1      17.610  37.933  23.176  1.00  0.00     0.134 A 
HETATM    3  C   LIG     1      17.169  36.913  22.320  1.00  0.00     0.142 A 
HETATM    4  C   LIG     1      17.584  36.941  20.977  1.00  0.00     0.182 A 
HETATM    5  N   LIG     1      18.392  37.937  20.537  1.00  0.00    -0.222 NA
HETATM    6  C   LIG     1      18.809  38.918  21.380  1.00  0.00     0.210 A 
HETATM    7  N   LIG     1      18.421  38.912  22.685  1.00  0.00    -0.340 N 
HETATM    8  N   LIG     1      17.171  35.964  20.128  1.00  0.00    -0.238 NA
HETATM    9  C   LIG     1      16.361  34.960  20.558  1.00  0.00     0.138 A 
HETATM   10  C   LIG     1      15.946  34.930  21.892  1.00  0.00     0.137 A 
HETATM   11  N   LIG     1      16.358  35.905  22.745  1.00  0.00    -0.253 NA
HETATM   12  H   LIG     1      18.758  39.680  23.311  1.00  0.00     0.167 HD
ENDROOT
TORSDOF 0
ENDMDL
MODEL 10
REMARK VINA RESULT:      -5.1      8.822     10.265
REMARK  0 active torsions:
REMARK  status: ('A' for Active; 'I' for Inactive)
ROOT
HETATM    1  S   LIG     1      13.948  29.368  14.246  1.00  0.00    -0.058 SA
HETATM    2  C   LIG     1      14.847  30.733  14.405  1.00  0.00     0.134 A 
HETATM    3  C   LIG     1      14.865  31.449  15.611  1.00  0.00     0.142 A 
HETATM    4  C   LIG     1      15.653  32.610  15.687  1.00  0.00     0.182 A 
HETATM    5  N   LIG     1      16.372  33.015  14.611  1.00  0.00    -0.222 NA
HETATM    6  C   LIG     1      16.342  32.309  13.450  1.00  0.00     0.210 A 
HETATM    7  N   LIG     1      15.586  31.182  13.351  1.00  0.00    -0.340 N 
HETATM    8  N   LIG     1      15.687  33.321  16.845  1.00  0.00    -0.238 NA
HETATM    9  C   LIG     1      14.971  32.925  17.931  1.00  0.00     0.138 A 
HETATM   10  C   LIG     1      14.187  31.770  17.858  1.00  0.00     0.137 A 
HETATM   11  N   LIG     1      14.150  31.057  16.701  1.00  0.00    -0.253 NA
HETATM   12  H   LIG     1      15.583  30.658  12.445  1.00  0.00     0.167 HD
ENDROOT
TORSDOF 0
ENDMDL
MODEL 11
REMARK VINA RESULT:      -4.9      9.288     11.023
REMARK  0 active torsions:
REMARK  status: ('A' for Active; 'I' for Inactive)
ROOT
HETATM    1  S   LIG     1      14.933  33.400  17.387  1.00  0.00    -0.058 SA
HETATM    2  C   LIG     1      15.733  32.985  16.014  1.00  0.00     0.134 A 
HETATM    3  C   LIG     1      15.349  31.863  15.267  1.00  0.00     0.142 A 
HETATM    4  C   LIG     1      16.072  31.556  14.101  1.00  0.00     0.182 A 
HETATM    5  N   LIG     1      17.113  32.339  13.722  1.00  0.00    -0.222 NA
HETATM    6  C   LIG     1      17.471  33.423  14.459  1.00  0.00     0.210 A 
HETATM    7  N   LIG     1      16.787  33.740  15.592  1.00  0.00    -0.340 N 
HETATM    8  N   LIG     1      15.720  30.474  13.359  1.00  0.00    -0.238 NA
HETATM    9  C   LIG     1      14.678  29.682  13.729  1.00  0.00     0.138 A 
HETATM   10  C   LIG     1      13.957  29.984  14.888  1.00  0.00     0.137 A 
HETATM   11  N   LIG     1      14.307  31.066  15.632  1.00  0.00    -0.253 NA
HETATM   12  H   LIG     1      17.085  34.580  16.140  1.00  0.00     0.167 HD
ENDROOT
TORSDOF 0
ENDMDL
MODEL 12
REMARK VINA RESULT:      -4.9      3.190      3.936
REMARK  0 active torsions:
REMARK  status: ('A' for Active; 'I' for Inactive)
ROOT
HETATM    1  S   LIG     1      19.684  38.117  19.301  1.00  0.00    -0.058 SA
HETATM    2  C   LIG     1      18.754  38.260  20.647  1.00  0.00     0.134 A 
HETATM    3  C   LIG     1      17.760  37.315  20.941  1.00  0.00     0.142 A 
HETATM    4  C   LIG     1      16.995  37.491  22.107  1.00  0.00     0.182 A 
HETATM    5  N   LIG     1      17.226  38.553  22.917  1.00  0.00    -0.222 NA
HETATM    6  C   LIG     1      18.193  39.460  22.617  1.00  0.00     0.210 A 
HETATM    7  N   LIG     1      18.946  39.312  21.492  1.00  0.00    -0.340 N 
HETATM    8  N   LIG     1      16.027  36.589  22.415  1.00  0.00    -0.238 NA
HETATM    9  C   LIG     1      15.786  35.519  21.610  1.00  0.00     0.138 A 
HETATM   10  C   LIG     1      16.546  35.342  20.451  1.00  0.00     0.137 A 
HETATM   11  N   LIG     1      17.516  36.242  20.140  1.00  0.00    -0.253 NA
HETATM   12  H   LIG     1      19.684  40.025  21.286  1.00  0.00     0.167 HD
ENDROOT
TORSDOF 0
ENDMDL
MODEL 13
REMARK VINA RESULT:      -4.7      8.230     10.044
REMARK  0 active torsions:
REMARK  status: ('A' for Active; 'I' for Inactive)
ROOT
HETATM    1  S   LIG     1      13.477  30.922  16.780  1.00  0.00    -0.058 SA
HETATM    2  C   LIG     1      14.464  32.226  16.632  1.00  0.00     0.134 A 
HETATM    3  C   LIG     1      15.285  32.386  15.507  1.00  0.00     0.142 A 
HETATM    4  C   LIG     1      16.109  33.523  15.436  1.00  0.00     0.182 A 
HETATM    5  N   LIG     1      16.097  34.433  16.441  1.00  0.00    -0.222 NA
HETATM    6  C   LIG     1      15.295  34.262  17.524  1.00  0.00     0.210 A 
HETATM    7  N   LIG     1      14.489  33.169  17.617  1.00  0.00    -0.340 N 
HETATM    8  N   LIG     1      16.913  33.701  14.356  1.00  0.00    -0.238 NA
HETATM    9  C   LIG     1      16.933  32.795  13.342  1.00  0.00     0.138 A 
HETATM   10  C   LIG     1      16.115  31.664  13.409  1.00  0.00     0.137 A 
HETATM   11  N   LIG     1      15.309  31.482  14.489  1.00  0.00    -0.253 NA
HETATM   12  H   LIG     1      13.882  33.063  18.462  1.00  0.00     0.167 HD
ENDROOT
TORSDOF 0
ENDMDL
MODEL 14
REMARK VINA RESULT:      -4.5      9.008     10.906
REMARK  0 active torsions:
REMARK  status: ('A' for Active; 'I' for Inactive)
ROOT
HETATM    1  S   LIG     1      15.175  34.123  17.367  1.00  0.00    -0.058 SA
HETATM    2  C   LIG     1      14.539  32.708  16.829  1.00  0.00     0.134 A 
HETATM    3  C   LIG     1      14.941  32.155  15.604  1.00  0.00     0.142 A 
HETATM    4  C   LIG     1      14.361  30.942  15.196  1.00  0.00     0.182 A 
HETATM    5  N   LIG     1      13.437  30.333  15.979  1.00  0.00    -0.222 NA
HETATM    6  C   LIG     1      13.060  30.882  17.164  1.00  0.00     0.210 A 
HETATM    7  N   LIG     1      13.606  32.057  17.581  1.00  0.00    -0.340 N 
HETATM    8  N   LIG     1      14.733  30.387  14.013  1.00  0.00    -0.238 NA
HETATM    9  C   LIG     1      15.659  30.988  13.218  1.00  0.00     0.138 A 
HETATM   10  C   LIG     1      16.237  32.194  13.622  1.00  0.00     0.137 A 
HETATM   11  N   LIG     1      15.867  32.753  14.805  1.00  0.00    -0.253 NA
HETATM   12  H   LIG     1      13.297  32.457  18.497  1.00  0.00     0.167 HD
ENDROOT
TORSDOF 0
ENDMDL
MODEL 15
REMARK VINA RESULT:      -3.9      2.250      3.834
REMARK  0 active torsions:
REMARK  status: ('A' for Active; 'I' for Inactive)
ROOT
HETATM    1  S   LIG     1      17.085  35.232  24.904  1.00  0.00    -0.058 SA
HETATM    2  C   LIG     1      17.038  35.624  23.310  1.00  0.00     0.134 A 
HETATM    3  C   LIG     1      17.484  36.876  22.862  1.00  0.00     0.142 A 
HETATM    4  C   LIG     1      17.418  37.155  21.486  1.00  0.00     0.182 A 
HETATM    5  N   LIG     1      16.934  36.225  20.626  1.00  0.00    -0.222 NA
HETATM    6  C   LIG     1      16.507  35.016  21.078  1.00  0.00     0.210 A 
HETATM    7  N   LIG     1      16.559  34.722  22.407  1.00  0.00    -0.340 N 
HETATM    8  N   LIG     1      17.844  38.361  21.026  1.00  0.00    -0.238 NA
HETATM    9  C   LIG     1      18.331  39.302  21.878  1.00  0.00     0.138 A 
HETATM   10  C   LIG     1      18.397  39.027  23.247  1.00  0.00     0.137 A 
HETATM   11  N   LIG     1      17.973  37.821  23.710  1.00  0.00    -0.253 NA
HETATM   12  H   LIG     1      16.223  33.785  22.726  1.00  0.00     0.167 HD
ENDROOT
TORSDOF 0
ENDMDL
MODEL 16
REMARK VINA RESULT:      -3.1     16.266     17.310
REMARK  0 active torsions:
REMARK  status: ('A' for Active; 'I' for Inactive)
ROOT
HETATM    1  S   LIG     1      30.106  32.128  37.377  1.00  0.00    -0.058 SA
HETATM    2  C   LIG     1      28.531  31.697  37.200  1.00  0.00     0.134 A 
HETATM    3  C   LIG     1      28.112  30.929  36.104  1.00  0.00     0.142 A 
HETATM    4  C   LIG     1      26.751  30.592  36.005  1.00  0.00     0.182 A 
HETATM    5  N   LIG     1      25.878  31.007  36.956  1.00  0.00    -0.222 NA
HETATM    6  C   LIG     1      26.302  31.750  38.012  1.00  0.00     0.210 A 
HETATM    7  N   LIG     1      27.615  32.091  38.129  1.00  0.00    -0.340 N 
HETATM    8  N   LIG     1      26.320  29.849  34.953  1.00  0.00    -0.238 NA
HETATM    9  C   LIG     1      27.186  29.427  33.993  1.00  0.00     0.138 A 
HETATM   10  C   LIG     1      28.539  29.761  34.088  1.00  0.00     0.137 A 
HETATM   11  N   LIG     1      28.974  30.505  35.140  1.00  0.00    -0.253 NA
HETATM   12  H   LIG     1      27.912  32.664  38.952  1.00  0.00     0.167 HD
ENDROOT
TORSDOF 0
ENDMDL
MODEL 17
REMARK VINA RESULT:      -3.1     12.132     13.599
REMARK  0 active torsions:
REMARK  status: ('A' for Active; 'I' for Inactive)
ROOT
HETATM    1  S   LIG     1      11.865  26.925  13.089  1.00  0.00    -0.058 SA
HETATM    2  C   LIG     1      13.396  27.510  13.196  1.00  0.00     0.134 A 
HETATM    3  C   LIG     1      13.681  28.650  13.962  1.00  0.00     0.142 A 
HETATM    4  C   LIG     1      15.010  29.104  14.016  1.00  0.00     0.182 A 
HETATM    5  N   LIG     1      15.981  28.444  13.338  1.00  0.00    -0.222 NA
HETATM    6  C   LIG     1      15.687  27.340  12.601  1.00  0.00     0.210 A 
HETATM    7  N   LIG     1      14.407  26.882  12.532  1.00  0.00    -0.340 N 
HETATM    8  N   LIG     1      15.311  30.206  14.751  1.00  0.00    -0.238 NA
HETATM    9  C   LIG     1      14.346  30.876  15.435  1.00  0.00     0.138 A 
HETATM   10  C   LIG     1      13.024  30.427  15.383  1.00  0.00     0.137 A 
HETATM   11  N   LIG     1      12.718  29.324  14.649  1.00  0.00    -0.253 NA
HETATM   12  H   LIG     1      14.210  26.030  11.957  1.00  0.00     0.167 HD
ENDROOT
TORSDOF 0
ENDMDL
MODEL 18
REMARK VINA RESULT:      -3.0     15.859     17.508
REMARK  0 active torsions:
REMARK  status: ('A' for Active; 'I' for Inactive)
ROOT
HETATM    1  S   LIG     1      27.141  28.182  33.454  1.00  0.00    -0.058 SA
HETATM    2  C   LIG     1      27.112  28.061  35.091  1.00  0.00     0.134 A 
HETATM    3  C   LIG     1      26.702  29.140  35.888  1.00  0.00     0.142 A 
HETATM    4  C   LIG     1      26.699  28.976  37.284  1.00  0.00     0.182 A 
HETATM    5  N   LIG     1      27.085  27.797  37.831  1.00  0.00    -0.222 NA
HETATM    6  C   LIG     1      27.479  26.762  37.044  1.00  0.00     0.210 A 
HETATM    7  N   LIG     1      27.492  26.895  35.689  1.00  0.00    -0.340 N 
HETATM    8  N   LIG     1      26.307  30.007  38.078  1.00  0.00    -0.238 NA
HETATM    9  C   LIG     1      25.917  31.194  37.541  1.00  0.00     0.138 A 
HETATM   10  C   LIG     1      25.919  31.359  36.154  1.00  0.00     0.137 A 
HETATM   11  N   LIG     1      26.312  30.330  35.356  1.00  0.00    -0.253 NA
HETATM   12  H   LIG     1      27.800  26.082  35.107  1.00  0.00     0.167 HD
ENDROOT
TORSDOF 0
ENDMDL
MODEL 19
REMARK VINA RESULT:      -3.0     16.281     17.299
REMARK  0 active torsions:
REMARK  status: ('A' for Active; 'I' for Inactive)
ROOT
HETATM    1  S   LIG     1      27.952  26.483  37.095  1.00  0.00    -0.058 SA
HETATM    2  C   LIG     1      27.298  27.563  36.044  1.00  0.00     0.134 A 
HETATM    3  C   LIG     1      26.936  28.851  36.465  1.00  0.00     0.142 A 
HETATM    4  C   LIG     1      26.380  29.731  35.521  1.00  0.00     0.182 A 
HETATM    5  N   LIG     1      26.206  29.329  34.238  1.00  0.00    -0.222 NA
HETATM    6  C   LIG     1      26.564  28.078  33.847  1.00  0.00     0.210 A 
HETATM    7  N   LIG     1      27.103  27.206  34.743  1.00  0.00    -0.340 N 
HETATM    8  N   LIG     1      26.020  30.984  35.904  1.00  0.00    -0.238 NA
HETATM    9  C   LIG     1      26.190  31.398  37.188  1.00  0.00     0.138 A 
HETATM   10  C   LIG     1      26.742  30.525  38.129  1.00  0.00     0.137 A 
HETATM   11  N   LIG     1      27.103  29.270  37.749  1.00  0.00    -0.253 NA
HETATM   12  H   LIG     1      27.368  26.249  34.414  1.00  0.00     0.167 HD
ENDROOT
TORSDOF 0
ENDMDL
