REMARK  0 active torsions:
REMARK  status: ('A' for Active; 'I' for Inactive)
ROOT
HETATM    1  S   LIG     1       1.290   2.793   0.101  1.00  0.00    -0.058 SA
HETATM    2  C   LIG     1       1.172   1.155   0.087  1.00  0.00     0.134 A 
HETATM    3  C   LIG     1      -0.076   0.522  -0.004  1.00  0.00     0.142 A 
HETATM    4  C   LIG     1      -0.114  -0.883  -0.011  1.00  0.00     0.182 A 
HETATM    5  N   LIG     1       1.038  -1.594   0.068  1.00  0.00    -0.222 NA
HETATM    6  C   LIG     1       2.239  -0.964   0.155  1.00  0.00     0.210 A 
HETATM    7  N   LIG     1       2.302   0.396   0.165  1.00  0.00    -0.340 N 
HETATM    8  N   LIG     1      -1.311  -1.520  -0.098  1.00  0.00    -0.238 NA
HETATM    9  C   LIG     1      -2.473  -0.818  -0.178  1.00  0.00     0.138 A 
HETATM   10  C   LIG     1      -2.438   0.579  -0.171  1.00  0.00     0.137 A 
HETATM   11  N   LIG     1      -1.242   1.220  -0.084  1.00  0.00    -0.253 NA
HETATM   12  H   LIG     1       3.240   0.854   0.233  1.00  0.00     0.167 HD
ENDROOT
TORSDOF 0
