REMARK  6 active torsions:
REMARK  status: ('A' for Active; 'I' for Inactive)
REMARK    1  A    between atoms: C_2  and  CA_4 
REMARK    2  A    between atoms: C_2  and  OXT_3 
REMARK    3  A    between atoms: CA_4  and  C_6 
REMARK    4  A    between atoms: CA_4  and  N_5 
REMARK    5  A    between atoms: C_6  and  C_7 
REMARK    6  A    between atoms: C_11  and  O_12 
ROOT
HETATM    1  C   LIG     1       0.286   0.370   0.449  1.00  0.00    -0.053 A 
HETATM    2  C   LIG     1       0.834   1.582   0.004  1.00  0.00     0.028 A 
HETATM    3  C   LIG     1       2.196   1.676  -0.294  1.00  0.00     0.041 A 
HETATM    4  I   LIG     1       2.970   3.524  -0.971  1.00  0.00    -0.042 I 
HETATM    5  C   LIG     1       3.032   0.559  -0.144  1.00  0.00     0.098 A 
HETATM    6  C   LIG     1       2.487  -0.660   0.309  1.00  0.00     0.041 A 
HETATM    7  I   LIG     1       3.659  -2.406   0.572  1.00  0.00    -0.042 I 
HETATM    8  C   LIG     1       1.122  -0.745   0.604  1.00  0.00     0.028 A 
ENDROOT
BRANCH   1   9
HETATM    9  C   LIG     1      -1.186   0.267   0.767  1.00  0.00     0.085 C 
BRANCH   9  10
HETATM   10  CA  LIG     1      -1.938  -0.611  -0.256  1.00  0.00     0.318 C 
BRANCH  10  11
HETATM   11  C   LIG     1      -3.369  -0.785   0.173  1.00  0.00     0.174 C 
HETATM   12  O   LIG     1      -4.212   0.125  -0.045  1.00  0.00    -0.648 OA
BRANCH  11  13
HETATM   13  OXT LIG     1      -3.767  -1.928   0.863  1.00  0.00    -0.775 OA
HETATM   14  HXT LIG     1      -3.110  -2.667   1.082  1.00  0.00     0.167 HD
ENDBRANCH  11  13
ENDBRANCH  10  11
BRANCH  10  15
HETATM   15  N   LIG     1      -1.891  -0.037  -1.605  1.00  0.00     0.093 N 
HETATM   16  H1  LIG     1      -0.914  -0.111  -1.971  1.00  0.00     0.314 HD
HETATM   17  H2  LIG     1      -2.134   0.980  -1.565  1.00  0.00     0.314 HD
ENDBRANCH  10  15
ENDBRANCH   9  10
ENDBRANCH   1   9
BRANCH   5  18
HETATM   18  O   LIG     1       4.388   0.684  -0.450  1.00  0.00    -0.358 OA
HETATM   19  H   LIG     1       5.045  -0.079  -0.366  1.00  0.00     0.217 HD
ENDBRANCH   5  18
TORSDOF 6
