MODEL 1
REMARK VINA RESULT:      -5.2      0.000      0.000
REMARK  0 active torsions:
REMARK  status: ('A' for Active; 'I' for Inactive)
ROOT
HETATM    1  O   LIG     1      20.526  39.402  19.338  1.00  0.00    -0.247 OA
HETATM    2  C   LIG     1      19.615  38.896  20.047  1.00  0.00     0.326 A 
HETATM    3  N   LIG     1      19.153  39.566  21.139  1.00  0.00    -0.319 N 
HETATM    4  C   LIG     1      18.170  39.037  21.915  1.00  0.00     0.098 A 
HETATM    5  C   LIG     1      17.624  37.794  21.597  1.00  0.00     0.091 A 
HETATM    6  N   LIG     1      19.093  37.682  19.720  1.00  0.00    -0.276 N 
HETATM    7  C   LIG     1      18.109  37.121  20.475  1.00  0.00     0.250 A 
HETATM    8  O   LIG     1      17.634  35.997  20.162  1.00  0.00    -0.268 OA
HETATM    9  H   LIG     1      19.553  40.498  21.389  1.00  0.00     0.170 HD
HETATM   10  H   LIG     1      19.453  37.173  18.880  1.00  0.00     0.173 HD
ENDROOT
TORSDOF 0
ENDMDL
MODEL 2
REMARK VINA RESULT:      -5.2      4.684      5.269
REMARK  0 active torsions:
REMARK  status: ('A' for Active; 'I' for Inactive)
ROOT
HETATM    1  O   LIG     1      17.138  38.873  25.358  1.00  0.00    -0.247 OA
HETATM    2  C   LIG     1      17.262  37.620  25.294  1.00  0.00     0.326 A 
HETATM    3  N   LIG     1      17.663  36.921  26.392  1.00  0.00    -0.319 N 
HETATM    4  C   LIG     1      17.802  35.570  26.343  1.00  0.00     0.098 A 
HETATM    5  C   LIG     1      17.535  34.884  25.160  1.00  0.00     0.091 A 
HETATM    6  N   LIG     1      16.996  36.968  24.130  1.00  0.00    -0.276 N 
HETATM    7  C   LIG     1      17.126  35.615  24.044  1.00  0.00     0.250 A 
HETATM    8  O   LIG     1      16.877  35.023  22.961  1.00  0.00    -0.268 OA
HETATM    9  H   LIG     1      17.866  37.422  27.286  1.00  0.00     0.170 HD
HETATM   10  H   LIG     1      16.690  37.512  23.290  1.00  0.00     0.173 HD
ENDROOT
TORSDOF 0
ENDMDL
MODEL 3
REMARK VINA RESULT:      -5.1      1.743      3.118
REMARK  0 active torsions:
REMARK  status: ('A' for Active; 'I' for Inactive)
ROOT
HETATM    1  O   LIG     1      17.484  39.273  22.681  1.00  0.00    -0.247 OA
HETATM    2  C   LIG     1      18.046  38.729  21.693  1.00  0.00     0.326 A 
HETATM    3  N   LIG     1      17.690  37.468  21.321  1.00  0.00    -0.319 N 
HETATM    4  C   LIG     1      18.283  36.863  20.257  1.00  0.00     0.098 A 
HETATM    5  C   LIG     1      19.269  37.534  19.535  1.00  0.00     0.091 A 
HETATM    6  N   LIG     1      19.005  39.400  20.999  1.00  0.00    -0.276 N 
HETATM    7  C   LIG     1      19.621  38.825  19.930  1.00  0.00     0.250 A 
HETATM    8  O   LIG     1      20.508  39.457  19.296  1.00  0.00    -0.268 OA
HETATM    9  H   LIG     1      16.953  36.953  21.853  1.00  0.00     0.170 HD
HETATM   10  H   LIG     1      19.273  40.367  21.292  1.00  0.00     0.173 HD
ENDROOT
TORSDOF 0
ENDMDL
MODEL 4
REMARK VINA RESULT:      -5.1      4.733      5.405
REMARK  0 active torsions:
REMARK  status: ('A' for Active; 'I' for Inactive)
ROOT
HETATM    1  O   LIG     1      17.078  38.906  25.283  1.00  0.00    -0.247 OA
HETATM    2  C   LIG     1      17.128  37.692  24.948  1.00  0.00     0.326 A 
HETATM    3  N   LIG     1      16.857  37.331  23.663  1.00  0.00    -0.319 N 
HETATM    4  C   LIG     1      16.906  36.028  23.281  1.00  0.00     0.098 A 
HETATM    5  C   LIG     1      17.235  35.042  24.210  1.00  0.00     0.091 A 
HETATM    6  N   LIG     1      17.452  36.744  25.869  1.00  0.00    -0.276 N 
HETATM    7  C   LIG     1      17.509  35.428  25.523  1.00  0.00     0.250 A 
HETATM    8  O   LIG     1      17.810  34.561  26.384  1.00  0.00    -0.268 OA
HETATM    9  H   LIG     1      16.609  38.060  22.956  1.00  0.00     0.170 HD
HETATM   10  H   LIG     1      17.658  37.029  26.854  1.00  0.00     0.173 HD
ENDROOT
TORSDOF 0
ENDMDL
MODEL 5
REMARK VINA RESULT:      -5.0      1.488      2.238
REMARK  0 active torsions:
REMARK  status: ('A' for Active; 'I' for Inactive)
ROOT
HETATM    1  O   LIG     1      20.563  39.458  19.282  1.00  0.00    -0.247 OA
HETATM    2  C   LIG     1      19.668  38.825  19.905  1.00  0.00     0.326 A 
HETATM    3  N   LIG     1      19.339  37.561  19.521  1.00  0.00    -0.319 N 
HETATM    4  C   LIG     1      18.378  36.862  20.180  1.00  0.00     0.098 A 
HETATM    5  C   LIG     1      17.714  37.439  21.261  1.00  0.00     0.091 A 
HETATM    6  N   LIG     1      19.032  39.405  20.959  1.00  0.00    -0.276 N 
HETATM    7  C   LIG     1      18.063  38.736  21.641  1.00  0.00     0.250 A 
HETATM    8  O   LIG     1      17.482  39.284  22.615  1.00  0.00    -0.268 OA
HETATM    9  H   LIG     1      19.829  37.115  18.712  1.00  0.00     0.170 HD
HETATM   10  H   LIG     1      19.290  40.377  21.247  1.00  0.00     0.173 HD
ENDROOT
TORSDOF 0
ENDMDL
MODEL 6
REMARK VINA RESULT:      -4.8      0.981      2.831
REMARK  0 active torsions:
REMARK  status: ('A' for Active; 'I' for Inactive)
ROOT
HETATM    1  O   LIG     1      17.522  35.913  20.168  1.00  0.00    -0.247 OA
HETATM    2  C   LIG     1      17.963  37.048  20.494  1.00  0.00     0.326 A 
HETATM    3  N   LIG     1      17.459  37.683  21.588  1.00  0.00    -0.319 N 
HETATM    4  C   LIG     1      17.922  38.907  21.956  1.00  0.00     0.098 A 
HETATM    5  C   LIG     1      18.923  39.527  21.210  1.00  0.00     0.091 A 
HETATM    6  N   LIG     1      18.941  37.637  19.753  1.00  0.00    -0.276 N 
HETATM    7  C   LIG     1      19.428  38.863  20.092  1.00  0.00     0.250 A 
HETATM    8  O   LIG     1      20.333  39.398  19.398  1.00  0.00    -0.268 OA
HETATM    9  H   LIG     1      16.709  37.230  22.157  1.00  0.00     0.170 HD
HETATM   10  H   LIG     1      19.323  37.143  18.914  1.00  0.00     0.173 HD
ENDROOT
TORSDOF 0
ENDMDL
MODEL 7
REMARK VINA RESULT:      -4.8      4.419      5.308
REMARK  0 active torsions:
REMARK  status: ('A' for Active; 'I' for Inactive)
ROOT
HETATM    1  O   LIG     1      17.834  34.625  26.303  1.00  0.00    -0.247 OA
HETATM    2  C   LIG     1      17.563  35.635  25.600  1.00  0.00     0.326 A 
HETATM    3  N   LIG     1      17.579  36.876  26.162  1.00  0.00    -0.319 N 
HETATM    4  C   LIG     1      17.290  37.978  25.420  1.00  0.00     0.098 A 
HETATM    5  C   LIG     1      16.972  37.847  24.070  1.00  0.00     0.091 A 
HETATM    6  N   LIG     1      17.256  35.487  24.283  1.00  0.00    -0.276 N 
HETATM    7  C   LIG     1      16.961  36.568  23.510  1.00  0.00     0.250 A 
HETATM    8  O   LIG     1      16.678  36.417  22.292  1.00  0.00    -0.268 OA
HETATM    9  H   LIG     1      17.815  36.990  27.173  1.00  0.00     0.170 HD
HETATM   10  H   LIG     1      17.246  34.531  23.859  1.00  0.00     0.173 HD
ENDROOT
TORSDOF 0
ENDMDL
MODEL 8
REMARK VINA RESULT:      -4.7      2.301      3.243
REMARK  0 active torsions:
REMARK  status: ('A' for Active; 'I' for Inactive)
ROOT
HETATM    1  O   LIG     1      17.477  35.822  20.345  1.00  0.00    -0.247 OA
HETATM    2  C   LIG     1      17.432  36.834  21.094  1.00  0.00     0.326 A 
HETATM    3  N   LIG     1      18.270  37.883  20.868  1.00  0.00    -0.319 N 
HETATM    4  C   LIG     1      18.236  38.984  21.665  1.00  0.00     0.098 A 
HETATM    5  C   LIG     1      17.336  39.049  22.727  1.00  0.00     0.091 A 
HETATM    6  N   LIG     1      16.546  36.879  22.126  1.00  0.00    -0.276 N 
HETATM    7  C   LIG     1      16.484  37.965  22.945  1.00  0.00     0.250 A 
HETATM    8  O   LIG     1      15.660  37.994  23.896  1.00  0.00    -0.268 OA
HETATM    9  H   LIG     1      18.950  37.849  20.075  1.00  0.00     0.170 HD
HETATM   10  H   LIG     1      15.905  36.069  22.293  1.00  0.00     0.173 HD
ENDROOT
TORSDOF 0
ENDMDL
MODEL 9
REMARK VINA RESULT:      -4.7      3.590      4.166
REMARK  0 active torsions:
REMARK  status: ('A' for Active; 'I' for Inactive)
ROOT
HETATM    1  O   LIG     1      17.141  38.492  25.782  1.00  0.00    -0.247 OA
HETATM    2  C   LIG     1      17.068  38.080  24.593  1.00  0.00     0.326 A 
HETATM    3  N   LIG     1      16.972  38.974  23.570  1.00  0.00    -0.319 N 
HETATM    4  C   LIG     1      16.893  38.550  22.281  1.00  0.00     0.098 A 
HETATM    5  C   LIG     1      16.909  37.186  21.994  1.00  0.00     0.091 A 
HETATM    6  N   LIG     1      17.086  36.745  24.333  1.00  0.00    -0.276 N 
HETATM    7  C   LIG     1      17.008  36.283  23.054  1.00  0.00     0.250 A 
HETATM    8  O   LIG     1      17.025  35.045  22.826  1.00  0.00    -0.268 OA
HETATM    9  H   LIG     1      16.959  39.999  23.771  1.00  0.00     0.170 HD
HETATM   10  H   LIG     1      17.160  36.064  25.124  1.00  0.00     0.173 HD
ENDROOT
TORSDOF 0
ENDMDL
MODEL 10
REMARK VINA RESULT:      -4.7      2.342      2.961
REMARK  0 active torsions:
REMARK  status: ('A' for Active; 'I' for Inactive)
ROOT
HETATM    1  O   LIG     1      18.760  39.641  20.977  1.00  0.00    -0.247 OA
HETATM    2  C   LIG     1      18.039  38.688  21.377  1.00  0.00     0.326 A 
HETATM    3  N   LIG     1      18.113  37.476  20.759  1.00  0.00    -0.319 N 
HETATM    4  C   LIG     1      17.345  36.435  21.176  1.00  0.00     0.098 A 
HETATM    5  C   LIG     1      16.468  36.600  22.247  1.00  0.00     0.091 A 
HETATM    6  N   LIG     1      17.190  38.868  22.425  1.00  0.00    -0.276 N 
HETATM    7  C   LIG     1      16.404  37.848  22.868  1.00  0.00     0.250 A 
HETATM    8  O   LIG     1      15.622  38.028  23.839  1.00  0.00    -0.268 OA
HETATM    9  H   LIG     1      18.766  37.338  19.955  1.00  0.00     0.170 HD
HETATM   10  H   LIG     1      17.138  39.802  22.894  1.00  0.00     0.173 HD
ENDROOT
TORSDOF 0
ENDMDL
MODEL 11
REMARK VINA RESULT:      -4.6      2.460      3.308
REMARK  0 active torsions:
REMARK  status: ('A' for Active; 'I' for Inactive)
ROOT
HETATM    1  O   LIG     1      16.049  37.834  24.252  1.00  0.00    -0.247 OA
HETATM    2  C   LIG     1      16.731  37.868  23.193  1.00  0.00     0.326 A 
HETATM    3  N   LIG     1      17.486  38.965  22.906  1.00  0.00    -0.319 N 
HETATM    4  C   LIG     1      18.228  39.021  21.769  1.00  0.00     0.098 A 
HETATM    5  C   LIG     1      18.221  37.948  20.879  1.00  0.00     0.091 A 
HETATM    6  N   LIG     1      16.712  36.810  22.337  1.00  0.00    -0.276 N 
HETATM    7  C   LIG     1      17.442  36.832  21.187  1.00  0.00     0.250 A 
HETATM    8  O   LIG     1      17.417  35.847  20.404  1.00  0.00    -0.268 OA
HETATM    9  H   LIG     1      17.500  39.777  23.564  1.00  0.00     0.170 HD
HETATM   10  H   LIG     1      16.130  35.972  22.563  1.00  0.00     0.173 HD
ENDROOT
TORSDOF 0
ENDMDL
MODEL 12
REMARK VINA RESULT:      -4.6      2.670      3.936
REMARK  0 active torsions:
REMARK  status: ('A' for Active; 'I' for Inactive)
ROOT
HETATM    1  O   LIG     1      16.012  38.029  24.267  1.00  0.00    -0.247 OA
HETATM    2  C   LIG     1      16.639  37.857  23.187  1.00  0.00     0.326 A 
HETATM    3  N   LIG     1      16.564  36.660  22.542  1.00  0.00    -0.319 N 
HETATM    4  C   LIG     1      17.232  36.456  21.376  1.00  0.00     0.098 A 
HETATM    5  C   LIG     1      18.006  37.477  20.827  1.00  0.00     0.091 A 
HETATM    6  N   LIG     1      17.389  38.867  22.667  1.00  0.00    -0.276 N 
HETATM    7  C   LIG     1      18.073  38.697  21.501  1.00  0.00     0.250 A 
HETATM    8  O   LIG     1      18.763  39.639  21.030  1.00  0.00    -0.268 OA
HETATM    9  H   LIG     1      15.988  35.886  22.941  1.00  0.00     0.170 HD
HETATM   10  H   LIG     1      17.442  39.783  23.168  1.00  0.00     0.173 HD
ENDROOT
TORSDOF 0
ENDMDL
MODEL 13
REMARK VINA RESULT:      -4.6      7.016      8.269
REMARK  0 active torsions:
REMARK  status: ('A' for Active; 'I' for Inactive)
ROOT
HETATM    1  O   LIG     1      15.517  34.638  17.623  1.00  0.00    -0.247 OA
HETATM    2  C   LIG     1      15.186  33.587  17.012  1.00  0.00     0.326 A 
HETATM    3  N   LIG     1      15.990  33.090  16.032  1.00  0.00    -0.319 N 
HETATM    4  C   LIG     1      15.651  31.956  15.362  1.00  0.00     0.098 A 
HETATM    5  C   LIG     1      14.468  31.289  15.675  1.00  0.00     0.091 A 
HETATM    6  N   LIG     1      14.027  32.949  17.333  1.00  0.00    -0.276 N 
HETATM    7  C   LIG     1      13.655  31.812  16.682  1.00  0.00     0.250 A 
HETATM    8  O   LIG     1      12.580  31.231  16.988  1.00  0.00    -0.268 OA
HETATM    9  H   LIG     1      16.880  33.580  15.786  1.00  0.00     0.170 HD
HETATM   10  H   LIG     1      13.414  33.337  18.087  1.00  0.00     0.173 HD
ENDROOT
TORSDOF 0
ENDMDL
MODEL 14
REMARK VINA RESULT:      -4.6      7.201      8.451
REMARK  0 active torsions:
REMARK  status: ('A' for Active; 'I' for Inactive)
ROOT
HETATM    1  O   LIG     1      15.201  32.644  19.780  1.00  0.00    -0.247 OA
HETATM    2  C   LIG     1      14.969  32.344  18.578  1.00  0.00     0.326 A 
HETATM    3  N   LIG     1      15.766  32.839  17.591  1.00  0.00    -0.319 N 
HETATM    4  C   LIG     1      15.534  32.526  16.288  1.00  0.00     0.098 A 
HETATM    5  C   LIG     1      14.469  31.692  15.950  1.00  0.00     0.091 A 
HETATM    6  N   LIG     1      13.926  31.528  18.268  1.00  0.00    -0.276 N 
HETATM    7  C   LIG     1      13.662  31.195  16.975  1.00  0.00     0.250 A 
HETATM    8  O   LIG     1      12.693  30.439  16.701  1.00  0.00    -0.268 OA
HETATM    9  H   LIG     1      16.568  33.465  17.829  1.00  0.00     0.170 HD
HETATM   10  H   LIG     1      13.318  31.153  19.033  1.00  0.00     0.173 HD
ENDROOT
TORSDOF 0
ENDMDL
MODEL 15
REMARK VINA RESULT:      -4.6      7.309      8.478
REMARK  0 active torsions:
REMARK  status: ('A' for Active; 'I' for Inactive)
ROOT
HETATM    1  O   LIG     1      15.606  34.540  17.031  1.00  0.00    -0.247 OA
HETATM    2  C   LIG     1      15.172  33.427  16.630  1.00  0.00     0.326 A 
HETATM    3  N   LIG     1      14.048  32.896  17.187  1.00  0.00    -0.319 N 
HETATM    4  C   LIG     1      13.563  31.697  16.767  1.00  0.00     0.098 A 
HETATM    5  C   LIG     1      14.218  30.996  15.756  1.00  0.00     0.091 A 
HETATM    6  N   LIG     1      15.824  32.758  15.641  1.00  0.00    -0.276 N 
HETATM    7  C   LIG     1      15.368  31.554  15.196  1.00  0.00     0.250 A 
HETATM    8  O   LIG     1      15.981  30.944  14.281  1.00  0.00    -0.268 OA
HETATM    9  H   LIG     1      13.547  33.411  17.946  1.00  0.00     0.170 HD
HETATM   10  H   LIG     1      16.687  33.171  15.218  1.00  0.00     0.173 HD
ENDROOT
TORSDOF 0
ENDMDL
MODEL 16
REMARK VINA RESULT:      -4.5      5.707      6.810
REMARK  0 active torsions:
REMARK  status: ('A' for Active; 'I' for Inactive)
ROOT
HETATM    1  O   LIG     1      15.563  34.306  20.906  1.00  0.00    -0.247 OA
HETATM    2  C   LIG     1      15.299  33.774  19.795  1.00  0.00     0.326 A 
HETATM    3  N   LIG     1      14.834  32.495  19.747  1.00  0.00    -0.319 N 
HETATM    4  C   LIG     1      14.543  31.905  18.558  1.00  0.00     0.098 A 
HETATM    5  C   LIG     1      14.720  32.609  17.368  1.00  0.00     0.091 A 
HETATM    6  N   LIG     1      15.477  34.478  18.644  1.00  0.00    -0.276 N 
HETATM    7  C   LIG     1      15.197  33.918  17.434  1.00  0.00     0.250 A 
HETATM    8  O   LIG     1      15.367  34.580  16.376  1.00  0.00    -0.268 OA
HETATM    9  H   LIG     1      14.696  31.956  20.632  1.00  0.00     0.170 HD
HETATM   10  H   LIG     1      15.835  35.460  18.688  1.00  0.00     0.173 HD
ENDROOT
TORSDOF 0
ENDMDL
MODEL 17
REMARK VINA RESULT:      -4.4      7.618      8.479
REMARK  0 active torsions:
REMARK  status: ('A' for Active; 'I' for Inactive)
ROOT
HETATM    1  O   LIG     1      18.412  34.467  13.491  1.00  0.00    -0.247 OA
HETATM    2  C   LIG     1      17.552  33.637  13.891  1.00  0.00     0.326 A 
HETATM    3  N   LIG     1      16.942  32.809  12.999  1.00  0.00    -0.319 N 
HETATM    4  C   LIG     1      16.013  31.906  13.411  1.00  0.00     0.098 A 
HETATM    5  C   LIG     1      15.674  31.822  14.761  1.00  0.00     0.091 A 
HETATM    6  N   LIG     1      17.236  33.569  15.213  1.00  0.00    -0.276 N 
HETATM    7  C   LIG     1      16.308  32.678  15.662  1.00  0.00     0.250 A 
HETATM    8  O   LIG     1      16.024  32.625  16.887  1.00  0.00    -0.268 OA
HETATM    9  H   LIG     1      17.186  32.861  11.985  1.00  0.00     0.170 HD
HETATM   10  H   LIG     1      17.708  34.209  15.892  1.00  0.00     0.173 HD
ENDROOT
TORSDOF 0
ENDMDL
MODEL 18
REMARK VINA RESULT:      -4.3      2.223      3.455
REMARK  0 active torsions:
REMARK  status: ('A' for Active; 'I' for Inactive)
ROOT
HETATM    1  O   LIG     1      15.902  34.954  22.005  1.00  0.00    -0.247 OA
HETATM    2  C   LIG     1      16.657  35.898  21.651  1.00  0.00     0.326 A 
HETATM    3  N   LIG     1      16.696  37.046  22.383  1.00  0.00    -0.319 N 
HETATM    4  C   LIG     1      17.505  38.076  22.018  1.00  0.00     0.098 A 
HETATM    5  C   LIG     1      18.306  37.965  20.883  1.00  0.00     0.091 A 
HETATM    6  N   LIG     1      17.432  35.771  20.540  1.00  0.00    -0.276 N 
HETATM    7  C   LIG     1      18.253  36.783  20.144  1.00  0.00     0.250 A 
HETATM    8  O   LIG     1      18.965  36.653  19.114  1.00  0.00    -0.268 OA
HETATM    9  H   LIG     1      16.102  37.143  23.237  1.00  0.00     0.170 HD
HETATM   10  H   LIG     1      17.396  34.887  19.983  1.00  0.00     0.173 HD
ENDROOT
TORSDOF 0
ENDMDL
MODEL 19
REMARK VINA RESULT:      -4.2      2.047      3.360
REMARK  0 active torsions:
REMARK  status: ('A' for Active; 'I' for Inactive)
ROOT
HETATM    1  O   LIG     1      17.154  35.532  20.414  1.00  0.00    -0.247 OA
HETATM    2  C   LIG     1      17.255  36.490  21.227  1.00  0.00     0.326 A 
HETATM    3  N   LIG     1      16.676  36.400  22.457  1.00  0.00    -0.319 N 
HETATM    4  C   LIG     1      16.775  37.422  23.348  1.00  0.00     0.098 A 
HETATM    5  C   LIG     1      17.475  38.578  23.007  1.00  0.00     0.091 A 
HETATM    6  N   LIG     1      17.943  37.610  20.877  1.00  0.00    -0.276 N 
HETATM    7  C   LIG     1      18.062  38.654  21.744  1.00  0.00     0.250 A 
HETATM    8  O   LIG     1      18.701  39.686  21.408  1.00  0.00    -0.268 OA
HETATM    9  H   LIG     1      16.149  35.539  22.725  1.00  0.00     0.170 HD
HETATM   10  H   LIG     1      18.384  37.672  19.931  1.00  0.00     0.173 HD
ENDROOT
TORSDOF 0
ENDMDL
MODEL 20
REMARK VINA RESULT:      -4.2      8.954      9.672
REMARK  0 active torsions:
REMARK  status: ('A' for Active; 'I' for Inactive)
ROOT
HETATM    1  O   LIG     1      15.751  30.321  13.392  1.00  0.00    -0.247 OA
HETATM    2  C   LIG     1      15.325  30.885  14.435  1.00  0.00     0.326 A 
HETATM    3  N   LIG     1      15.958  31.992  14.915  1.00  0.00    -0.319 N 
HETATM    4  C   LIG     1      15.514  32.615  16.039  1.00  0.00     0.098 A 
HETATM    5  C   LIG     1      14.398  32.122  16.714  1.00  0.00     0.091 A 
HETATM    6  N   LIG     1      14.234  30.390  15.080  1.00  0.00    -0.276 N 
HETATM    7  C   LIG     1      13.762  30.987  16.209  1.00  0.00     0.250 A 
HETATM    8  O   LIG     1      12.751  30.519  16.797  1.00  0.00    -0.268 OA
HETATM    9  H   LIG     1      16.795  32.372  14.419  1.00  0.00     0.170 HD
HETATM   10  H   LIG     1      13.754  29.540  14.706  1.00  0.00     0.173 HD
ENDROOT
TORSDOF 0
ENDMDL
