REMARK  0 active torsions:
REMARK  status: ('A' for Active; 'I' for Inactive)
ROOT
HETATM    1  O   LIG     1      -2.026  -1.657   0.095  1.00  0.00    -0.247 OA
HETATM    2  C   LIG     1      -1.054  -0.856   0.049  1.00  0.00     0.326 A 
HETATM    3  N   LIG     1      -1.282   0.486   0.008  1.00  0.00    -0.319 N 
HETATM    4  C   LIG     1      -0.247   1.366  -0.041  1.00  0.00     0.098 A 
HETATM    5  C   LIG     1       1.066   0.898  -0.051  1.00  0.00     0.091 A 
HETATM    6  N   LIG     1       0.221  -1.332   0.041  1.00  0.00    -0.276 N 
HETATM    7  C   LIG     1       1.282  -0.480  -0.009  1.00  0.00     0.250 A 
HETATM    8  O   LIG     1       2.457  -0.933  -0.016  1.00  0.00    -0.268 OA
HETATM    9  H   LIG     1      -2.261   0.851   0.015  1.00  0.00     0.170 HD
HETATM   10  H   LIG     1       0.388  -2.364   0.072  1.00  0.00     0.173 HD
ENDROOT
TORSDOF 0
