MODEL 1
REMARK VINA RESULT:      -4.8      0.000      0.000
REMARK  4 active torsions:
REMARK  status: ('A' for Active; 'I' for Inactive)
REMARK    1  A    between atoms: C_2  and  C_3 
REMARK    2  A    between atoms: C_3  and  C_4 
REMARK    3  A    between atoms: C_4  and  C_5 
REMARK    4  A    between atoms: C_5  and  C_6 
ROOT
HETATM    1  C   LIG     1      17.510  37.782  25.557  1.00  0.00     0.007 C 
ENDROOT
BRANCH   1   2
HETATM    2  C   LIG     1      18.614  36.895  26.160  1.00  0.00     0.000 C 
BRANCH   2   3
HETATM    3  C   LIG     1      18.198  35.437  26.425  1.00  0.00    -0.005 C 
HETATM    4  C   LIG     1      17.351  34.844  25.300  1.00  0.00     0.005 C 
ENDBRANCH   2   3
ENDBRANCH   1   2
BRANCH   1   5
HETATM    5  C   LIG     1      17.804  38.200  24.109  1.00  0.00     0.069 C 
BRANCH   5   6
HETATM    6  C   LIG     1      16.591  38.021  23.244  1.00  0.00     0.231 C 
HETATM    7  O   LIG     1      15.478  37.969  23.742  1.00  0.00    -0.307 OA
ENDBRANCH   5   6
ENDBRANCH   1   5
TORSDOF 4
ENDMDL
MODEL 2
REMARK VINA RESULT:      -4.5      3.118      4.768
REMARK  4 active torsions:
REMARK  status: ('A' for Active; 'I' for Inactive)
REMARK    1  A    between atoms: C_2  and  C_3 
REMARK    2  A    between atoms: C_3  and  C_4 
REMARK    3  A    between atoms: C_4  and  C_5 
REMARK    4  A    between atoms: C_5  and  C_6 
ROOT
HETATM    1  C   LIG     1      18.626  39.074  21.938  1.00  0.00     0.007 C 
ENDROOT
BRANCH   1   2
HETATM    2  C   LIG     1      18.849  39.450  20.463  1.00  0.00     0.000 C 
BRANCH   2   3
HETATM    3  C   LIG     1      19.767  38.492  19.683  1.00  0.00    -0.005 C 
HETATM    4  C   LIG     1      19.169  37.096  19.517  1.00  0.00     0.005 C 
ENDBRANCH   2   3
ENDBRANCH   1   2
BRANCH   1   5
HETATM    5  C   LIG     1      17.169  38.697  22.244  1.00  0.00     0.069 C 
BRANCH   5   6
HETATM    6  C   LIG     1      17.064  38.000  23.568  1.00  0.00     0.231 C 
HETATM    7  O   LIG     1      16.028  38.049  24.212  1.00  0.00    -0.307 OA
ENDBRANCH   5   6
ENDBRANCH   1   5
TORSDOF 4
ENDMDL
MODEL 3
REMARK VINA RESULT:      -4.4      1.690      2.412
REMARK  4 active torsions:
REMARK  status: ('A' for Active; 'I' for Inactive)
REMARK    1  A    between atoms: C_2  and  C_3 
REMARK    2  A    between atoms: C_3  and  C_4 
REMARK    3  A    between atoms: C_4  and  C_5 
REMARK    4  A    between atoms: C_5  and  C_6 
ROOT
HETATM    1  C   LIG     1      17.184  35.867  24.140  1.00  0.00     0.007 C 
ENDROOT
BRANCH   1   2
HETATM    2  C   LIG     1      17.330  34.814  25.252  1.00  0.00     0.000 C 
BRANCH   2   3
HETATM    3  C   LIG     1      18.302  35.197  26.381  1.00  0.00    -0.005 C 
HETATM    4  C   LIG     1      18.541  36.703  26.478  1.00  0.00     0.005 C 
ENDBRANCH   2   3
ENDBRANCH   1   2
BRANCH   1   5
HETATM    5  C   LIG     1      16.981  35.245  22.751  1.00  0.00     0.069 C 
BRANCH   5   6
HETATM    6  C   LIG     1      16.379  36.239  21.802  1.00  0.00     0.231 C 
HETATM    7  O   LIG     1      15.217  36.591  21.930  1.00  0.00    -0.307 OA
ENDBRANCH   5   6
ENDBRANCH   1   5
TORSDOF 4
ENDMDL
MODEL 4
REMARK VINA RESULT:      -4.3      4.055      4.930
REMARK  4 active torsions:
REMARK  status: ('A' for Active; 'I' for Inactive)
REMARK    1  A    between atoms: C_2  and  C_3 
REMARK    2  A    between atoms: C_3  and  C_4 
REMARK    3  A    between atoms: C_4  and  C_5 
REMARK    4  A    between atoms: C_5  and  C_6 
ROOT
HETATM    1  C   LIG     1      18.180  36.626  20.280  1.00  0.00     0.007 C 
ENDROOT
BRANCH   1   2
HETATM    2  C   LIG     1      17.643  37.517  21.414  1.00  0.00     0.000 C 
BRANCH   2   3
HETATM    3  C   LIG     1      16.893  36.763  22.527  1.00  0.00    -0.005 C 
HETATM    4  C   LIG     1      16.929  35.246  22.349  1.00  0.00     0.005 C 
ENDBRANCH   2   3
ENDBRANCH   1   2
BRANCH   1   5
HETATM    5  C   LIG     1      19.265  37.317  19.441  1.00  0.00     0.069 C 
BRANCH   5   6
HETATM    6  C   LIG     1      19.347  38.778  19.770  1.00  0.00     0.231 C 
HETATM    7  O   LIG     1      20.335  39.426  19.467  1.00  0.00    -0.307 OA
ENDBRANCH   5   6
ENDBRANCH   1   5
TORSDOF 4
ENDMDL
MODEL 5
REMARK VINA RESULT:      -4.1      2.452      3.786
REMARK  4 active torsions:
REMARK  status: ('A' for Active; 'I' for Inactive)
REMARK    1  A    between atoms: C_2  and  C_3 
REMARK    2  A    between atoms: C_3  and  C_4 
REMARK    3  A    between atoms: C_4  and  C_5 
REMARK    4  A    between atoms: C_5  and  C_6 
ROOT
HETATM    1  C   LIG     1      16.980  35.160  23.182  1.00  0.00     0.007 C 
ENDROOT
BRANCH   1   2
HETATM    2  C   LIG     1      17.305  35.694  21.776  1.00  0.00     0.000 C 
BRANCH   2   3
HETATM    3  C   LIG     1      16.208  35.453  20.724  1.00  0.00    -0.005 C 
HETATM    4  C   LIG     1      14.799  35.695  21.264  1.00  0.00     0.005 C 
ENDBRANCH   2   3
ENDBRANCH   1   2
BRANCH   1   5
HETATM    5  C   LIG     1      17.245  36.191  24.289  1.00  0.00     0.069 C 
BRANCH   5   6
HETATM    6  C   LIG     1      16.874  37.571  23.834  1.00  0.00     0.231 C 
HETATM    7  O   LIG     1      15.753  38.009  24.036  1.00  0.00    -0.307 OA
ENDBRANCH   5   6
ENDBRANCH   1   5
TORSDOF 4
ENDMDL
MODEL 6
REMARK VINA RESULT:      -4.0     10.420     11.445
REMARK  4 active torsions:
REMARK  status: ('A' for Active; 'I' for Inactive)
REMARK    1  A    between atoms: C_2  and  C_3 
REMARK    2  A    between atoms: C_3  and  C_4 
REMARK    3  A    between atoms: C_4  and  C_5 
REMARK    4  A    between atoms: C_5  and  C_6 
ROOT
HETATM    1  C   LIG     1      14.108  31.350  16.363  1.00  0.00     0.007 C 
ENDROOT
BRANCH   1   2
HETATM    2  C   LIG     1      13.769  30.431  15.176  1.00  0.00     0.000 C 
BRANCH   2   3
HETATM    3  C   LIG     1      14.913  30.232  14.165  1.00  0.00    -0.005 C 
HETATM    4  C   LIG     1      15.229  28.761  13.904  1.00  0.00     0.005 C 
ENDBRANCH   2   3
ENDBRANCH   1   2
BRANCH   1   5
HETATM    5  C   LIG     1      15.260  32.319  16.058  1.00  0.00     0.069 C 
BRANCH   5   6
HETATM    6  C   LIG     1      15.057  33.629  16.759  1.00  0.00     0.231 C 
HETATM    7  O   LIG     1      15.729  34.602  16.459  1.00  0.00    -0.307 OA
ENDBRANCH   5   6
ENDBRANCH   1   5
TORSDOF 4
ENDMDL
MODEL 7
REMARK VINA RESULT:      -4.0     10.237     11.282
REMARK  4 active torsions:
REMARK  status: ('A' for Active; 'I' for Inactive)
REMARK    1  A    between atoms: C_2  and  C_3 
REMARK    2  A    between atoms: C_3  and  C_4 
REMARK    3  A    between atoms: C_4  and  C_5 
REMARK    4  A    between atoms: C_5  and  C_6 
ROOT
HETATM    1  C   LIG     1      13.132  31.204  16.683  1.00  0.00     0.007 C 
ENDROOT
BRANCH   1   2
HETATM    2  C   LIG     1      13.366  30.409  15.386  1.00  0.00     0.000 C 
BRANCH   2   3
HETATM    3  C   LIG     1      14.761  30.587  14.762  1.00  0.00    -0.005 C 
HETATM    4  C   LIG     1      15.196  29.388  13.921  1.00  0.00     0.005 C 
ENDBRANCH   2   3
ENDBRANCH   1   2
BRANCH   1   5
HETATM    5  C   LIG     1      14.222  32.253  16.945  1.00  0.00     0.069 C 
BRANCH   5   6
HETATM    6  C   LIG     1      14.713  32.173  18.360  1.00  0.00     0.231 C 
HETATM    7  O   LIG     1      14.343  31.269  19.093  1.00  0.00    -0.307 OA
ENDBRANCH   5   6
ENDBRANCH   1   5
TORSDOF 4
ENDMDL
MODEL 8
REMARK VINA RESULT:      -3.9      2.164      4.059
REMARK  4 active torsions:
REMARK  status: ('A' for Active; 'I' for Inactive)
REMARK    1  A    between atoms: C_2  and  C_3 
REMARK    2  A    between atoms: C_3  and  C_4 
REMARK    3  A    between atoms: C_4  and  C_5 
REMARK    4  A    between atoms: C_5  and  C_6 
ROOT
HETATM    1  C   LIG     1      17.031  35.271  23.027  1.00  0.00     0.007 C 
ENDROOT
BRANCH   1   2
HETATM    2  C   LIG     1      16.552  36.680  22.633  1.00  0.00     0.000 C 
BRANCH   2   3
HETATM    3  C   LIG     1      17.424  37.388  21.581  1.00  0.00    -0.005 C 
HETATM    4  C   LIG     1      17.957  38.738  22.058  1.00  0.00     0.005 C 
ENDBRANCH   2   3
ENDBRANCH   1   2
BRANCH   1   5
HETATM    5  C   LIG     1      17.281  35.126  24.535  1.00  0.00     0.069 C 
BRANCH   5   6
HETATM    6  C   LIG     1      17.454  36.469  25.181  1.00  0.00     0.231 C 
HETATM    7  O   LIG     1      18.378  36.671  25.952  1.00  0.00    -0.307 OA
ENDBRANCH   5   6
ENDBRANCH   1   5
TORSDOF 4
ENDMDL
MODEL 9
REMARK VINA RESULT:      -3.9      2.442      3.390
REMARK  4 active torsions:
REMARK  status: ('A' for Active; 'I' for Inactive)
REMARK    1  A    between atoms: C_2  and  C_3 
REMARK    2  A    between atoms: C_3  and  C_4 
REMARK    3  A    between atoms: C_4  and  C_5 
REMARK    4  A    between atoms: C_5  and  C_6 
ROOT
HETATM    1  C   LIG     1      17.904  37.233  21.169  1.00  0.00     0.007 C 
ENDROOT
BRANCH   1   2
HETATM    2  C   LIG     1      16.645  36.375  21.387  1.00  0.00     0.000 C 
BRANCH   2   3
HETATM    3  C   LIG     1      16.893  35.033  22.098  1.00  0.00    -0.005 C 
HETATM    4  C   LIG     1      17.084  35.183  23.606  1.00  0.00     0.005 C 
ENDBRANCH   2   3
ENDBRANCH   1   2
BRANCH   1   5
HETATM    5  C   LIG     1      17.726  38.685  21.635  1.00  0.00     0.069 C 
BRANCH   5   6
HETATM    6  C   LIG     1      16.646  38.786  22.672  1.00  0.00     0.231 C 
HETATM    7  O   LIG     1      16.931  38.849  23.857  1.00  0.00    -0.307 OA
ENDBRANCH   5   6
ENDBRANCH   1   5
TORSDOF 4
ENDMDL
MODEL 10
REMARK VINA RESULT:      -3.9     10.409     11.464
REMARK  4 active torsions:
REMARK  status: ('A' for Active; 'I' for Inactive)
REMARK    1  A    between atoms: C_2  and  C_3 
REMARK    2  A    between atoms: C_3  and  C_4 
REMARK    3  A    between atoms: C_4  and  C_5 
REMARK    4  A    between atoms: C_5  and  C_6 
ROOT
HETATM    1  C   LIG     1      15.633  31.603  14.221  1.00  0.00     0.007 C 
ENDROOT
BRANCH   1   2
HETATM    2  C   LIG     1      15.116  30.228  14.680  1.00  0.00     0.000 C 
BRANCH   2   3
HETATM    3  C   LIG     1      13.588  30.130  14.829  1.00  0.00    -0.005 C 
HETATM    4  C   LIG     1      13.083  30.663  16.169  1.00  0.00     0.005 C 
ENDBRANCH   2   3
ENDBRANCH   1   2
BRANCH   1   5
HETATM    5  C   LIG     1      16.488  32.306  15.285  1.00  0.00     0.069 C 
BRANCH   5   6
HETATM    6  C   LIG     1      15.651  33.235  16.114  1.00  0.00     0.231 C 
HETATM    7  O   LIG     1      15.955  34.412  16.221  1.00  0.00    -0.307 OA
ENDBRANCH   5   6
ENDBRANCH   1   5
TORSDOF 4
ENDMDL
MODEL 11
REMARK VINA RESULT:      -3.9      2.582      3.693
REMARK  4 active torsions:
REMARK  status: ('A' for Active; 'I' for Inactive)
REMARK    1  A    between atoms: C_2  and  C_3 
REMARK    2  A    between atoms: C_3  and  C_4 
REMARK    3  A    between atoms: C_4  and  C_5 
REMARK    4  A    between atoms: C_5  and  C_6 
ROOT
HETATM    1  C   LIG     1      16.991  36.734  21.998  1.00  0.00     0.007 C 
ENDROOT
BRANCH   1   2
HETATM    2  C   LIG     1      16.500  37.589  23.180  1.00  0.00     0.000 C 
BRANCH   2   3
HETATM    3  C   LIG     1      17.615  38.137  24.088  1.00  0.00    -0.005 C 
HETATM    4  C   LIG     1      17.618  37.505  25.478  1.00  0.00     0.005 C 
ENDBRANCH   2   3
ENDBRANCH   1   2
BRANCH   1   5
HETATM    5  C   LIG     1      16.849  35.226  22.252  1.00  0.00     0.069 C 
BRANCH   5   6
HETATM    6  C   LIG     1      15.881  34.609  21.287  1.00  0.00     0.231 C 
HETATM    7  O   LIG     1      14.744  34.341  21.639  1.00  0.00    -0.307 OA
ENDBRANCH   5   6
ENDBRANCH   1   5
TORSDOF 4
ENDMDL
MODEL 12
REMARK VINA RESULT:      -3.8      7.142      8.118
REMARK  4 active torsions:
REMARK  status: ('A' for Active; 'I' for Inactive)
REMARK    1  A    between atoms: C_2  and  C_3 
REMARK    2  A    between atoms: C_3  and  C_4 
REMARK    3  A    between atoms: C_4  and  C_5 
REMARK    4  A    between atoms: C_5  and  C_6 
ROOT
HETATM    1  C   LIG     1      14.525  32.015  18.312  1.00  0.00     0.007 C 
ENDROOT
BRANCH   1   2
HETATM    2  C   LIG     1      15.518  32.207  19.472  1.00  0.00     0.000 C 
BRANCH   2   3
HETATM    3  C   LIG     1      15.077  33.225  20.538  1.00  0.00    -0.005 C 
HETATM    4  C   LIG     1      15.919  34.500  20.530  1.00  0.00     0.005 C 
ENDBRANCH   2   3
ENDBRANCH   1   2
BRANCH   1   5
HETATM    5  C   LIG     1      15.080  32.499  16.964  1.00  0.00     0.069 C 
BRANCH   5   6
HETATM    6  C   LIG     1      15.015  33.994  16.865  1.00  0.00     0.231 C 
HETATM    7  O   LIG     1      15.936  34.621  16.367  1.00  0.00    -0.307 OA
ENDBRANCH   5   6
ENDBRANCH   1   5
TORSDOF 4
ENDMDL
MODEL 13
REMARK VINA RESULT:      -3.8     11.463     12.446
REMARK  4 active torsions:
REMARK  status: ('A' for Active; 'I' for Inactive)
REMARK    1  A    between atoms: C_2  and  C_3 
REMARK    2  A    between atoms: C_3  and  C_4 
REMARK    3  A    between atoms: C_4  and  C_5 
REMARK    4  A    between atoms: C_5  and  C_6 
ROOT
HETATM    1  C   LIG     1      14.983  31.173  14.933  1.00  0.00     0.007 C 
ENDROOT
BRANCH   1   2
HETATM    2  C   LIG     1      15.329  30.120  13.866  1.00  0.00     0.000 C 
BRANCH   2   3
HETATM    3  C   LIG     1      14.585  28.781  14.013  1.00  0.00    -0.005 C 
HETATM    4  C   LIG     1      15.413  27.584  13.549  1.00  0.00     0.005 C 
ENDBRANCH   2   3
ENDBRANCH   1   2
BRANCH   1   5
HETATM    5  C   LIG     1      13.769  30.780  15.788  1.00  0.00     0.069 C 
BRANCH   5   6
HETATM    6  C   LIG     1      13.638  31.684  16.978  1.00  0.00     0.231 C 
HETATM    7  O   LIG     1      13.954  31.292  18.090  1.00  0.00    -0.307 OA
ENDBRANCH   5   6
ENDBRANCH   1   5
TORSDOF 4
ENDMDL
MODEL 14
REMARK VINA RESULT:      -3.8      5.378      6.405
REMARK  4 active torsions:
REMARK  status: ('A' for Active; 'I' for Inactive)
REMARK    1  A    between atoms: C_2  and  C_3 
REMARK    2  A    between atoms: C_3  and  C_4 
REMARK    3  A    between atoms: C_4  and  C_5 
REMARK    4  A    between atoms: C_5  and  C_6 
ROOT
HETATM    1  C   LIG     1      15.508  33.996  20.729  1.00  0.00     0.007 C 
ENDROOT
BRANCH   1   2
HETATM    2  C   LIG     1      16.115  35.382  20.448  1.00  0.00     0.000 C 
BRANCH   2   3
HETATM    3  C   LIG     1      17.196  35.829  21.448  1.00  0.00    -0.005 C 
HETATM    4  C   LIG     1      16.993  35.247  22.846  1.00  0.00     0.005 C 
ENDBRANCH   2   3
ENDBRANCH   1   2
BRANCH   1   5
HETATM    5  C   LIG     1      15.393  33.127  19.469  1.00  0.00     0.069 C 
BRANCH   5   6
HETATM    6  C   LIG     1      15.448  31.669  19.816  1.00  0.00     0.231 C 
HETATM    7  O   LIG     1      14.440  30.984  19.771  1.00  0.00    -0.307 OA
ENDBRANCH   5   6
ENDBRANCH   1   5
TORSDOF 4
ENDMDL
MODEL 15
REMARK VINA RESULT:      -3.7      9.815     10.761
REMARK  4 active torsions:
REMARK  status: ('A' for Active; 'I' for Inactive)
REMARK    1  A    between atoms: C_2  and  C_3 
REMARK    2  A    between atoms: C_3  and  C_4 
REMARK    3  A    between atoms: C_4  and  C_5 
REMARK    4  A    between atoms: C_5  and  C_6 
ROOT
HETATM    1  C   LIG     1      13.724  30.927  16.838  1.00  0.00     0.007 C 
ENDROOT
BRANCH   1   2
HETATM    2  C   LIG     1      14.155  32.372  17.148  1.00  0.00     0.000 C 
BRANCH   2   3
HETATM    3  C   LIG     1      15.135  32.515  18.326  1.00  0.00    -0.005 C 
HETATM    4  C   LIG     1      14.790  31.605  19.504  1.00  0.00     0.005 C 
ENDBRANCH   2   3
ENDBRANCH   1   2
BRANCH   1   5
HETATM    5  C   LIG     1      13.902  30.555  15.359  1.00  0.00     0.069 C 
BRANCH   5   6
HETATM    6  C   LIG     1      15.170  31.138  14.809  1.00  0.00     0.231 C 
HETATM    7  O   LIG     1      16.002  30.421  14.279  1.00  0.00    -0.307 OA
ENDBRANCH   5   6
ENDBRANCH   1   5
TORSDOF 4
ENDMDL
MODEL 16
REMARK VINA RESULT:      -3.7      3.917      4.970
REMARK  4 active torsions:
REMARK  status: ('A' for Active; 'I' for Inactive)
REMARK    1  A    between atoms: C_2  and  C_3 
REMARK    2  A    between atoms: C_3  and  C_4 
REMARK    3  A    between atoms: C_4  and  C_5 
REMARK    4  A    between atoms: C_5  and  C_6 
ROOT
HETATM    1  C   LIG     1      16.986  35.808  20.839  1.00  0.00     0.007 C 
ENDROOT
BRANCH   1   2
HETATM    2  C   LIG     1      15.882  35.076  20.055  1.00  0.00     0.000 C 
BRANCH   2   3
HETATM    3  C   LIG     1      15.441  33.732  20.663  1.00  0.00    -0.005 C 
HETATM    4  C   LIG     1      15.350  32.611  19.630  1.00  0.00     0.005 C 
ENDBRANCH   2   3
ENDBRANCH   1   2
BRANCH   1   5
HETATM    5  C   LIG     1      16.929  35.532  22.349  1.00  0.00     0.069 C 
BRANCH   5   6
HETATM    6  C   LIG     1      16.745  36.807  23.119  1.00  0.00     0.231 C 
HETATM    7  O   LIG     1      15.816  37.555  22.863  1.00  0.00    -0.307 OA
ENDBRANCH   5   6
ENDBRANCH   1   5
TORSDOF 4
ENDMDL
MODEL 17
REMARK VINA RESULT:      -3.7      3.422      4.697
REMARK  4 active torsions:
REMARK  status: ('A' for Active; 'I' for Inactive)
REMARK    1  A    between atoms: C_2  and  C_3 
REMARK    2  A    between atoms: C_3  and  C_4 
REMARK    3  A    between atoms: C_4  and  C_5 
REMARK    4  A    between atoms: C_5  and  C_6 
ROOT
HETATM    1  C   LIG     1      16.582  37.776  22.360  1.00  0.00     0.007 C 
ENDROOT
BRANCH   1   2
HETATM    2  C   LIG     1      17.924  38.450  22.023  1.00  0.00     0.000 C 
BRANCH   2   3
HETATM    3  C   LIG     1      18.494  38.099  20.638  1.00  0.00    -0.005 C 
HETATM    4  C   LIG     1      19.615  39.039  20.198  1.00  0.00     0.005 C 
ENDBRANCH   2   3
ENDBRANCH   1   2
BRANCH   1   5
HETATM    5  C   LIG     1      16.665  36.243  22.351  1.00  0.00     0.069 C 
BRANCH   5   6
HETATM    6  C   LIG     1      15.537  35.650  21.560  1.00  0.00     0.231 C 
HETATM    7  O   LIG     1      15.193  34.494  21.744  1.00  0.00    -0.307 OA
ENDBRANCH   5   6
ENDBRANCH   1   5
TORSDOF 4
ENDMDL
MODEL 18
REMARK VINA RESULT:      -3.6     11.050     11.932
REMARK  4 active torsions:
REMARK  status: ('A' for Active; 'I' for Inactive)
REMARK    1  A    between atoms: C_2  and  C_3 
REMARK    2  A    between atoms: C_3  and  C_4 
REMARK    3  A    between atoms: C_4  and  C_5 
REMARK    4  A    between atoms: C_5  and  C_6 
ROOT
HETATM    1  C   LIG     1      14.705  30.497  14.408  1.00  0.00     0.007 C 
ENDROOT
BRANCH   1   2
HETATM    2  C   LIG     1      15.584  31.628  14.969  1.00  0.00     0.000 C 
BRANCH   2   3
HETATM    3  C   LIG     1      16.378  32.414  13.910  1.00  0.00    -0.005 C 
HETATM    4  C   LIG     1      17.558  33.185  14.500  1.00  0.00     0.005 C 
ENDBRANCH   2   3
ENDBRANCH   1   2
BRANCH   1   5
HETATM    5  C   LIG     1      13.431  30.265  15.234  1.00  0.00     0.069 C 
BRANCH   5   6
HETATM    6  C   LIG     1      13.489  31.019  16.529  1.00  0.00     0.231 C 
HETATM    7  O   LIG     1      12.477  31.508  17.005  1.00  0.00    -0.307 OA
ENDBRANCH   5   6
ENDBRANCH   1   5
TORSDOF 4
ENDMDL
MODEL 19
REMARK VINA RESULT:      -3.5      7.657      8.603
REMARK  4 active torsions:
REMARK  status: ('A' for Active; 'I' for Inactive)
REMARK    1  A    between atoms: C_2  and  C_3 
REMARK    2  A    between atoms: C_3  and  C_4 
REMARK    3  A    between atoms: C_4  and  C_5 
REMARK    4  A    between atoms: C_5  and  C_6 
ROOT
HETATM    1  C   LIG     1      14.581  31.761  19.060  1.00  0.00     0.007 C 
ENDROOT
BRANCH   1   2
HETATM    2  C   LIG     1      15.721  32.421  19.856  1.00  0.00     0.000 C 
BRANCH   2   3
HETATM    3  C   LIG     1      15.313  33.677  20.647  1.00  0.00    -0.005 C 
HETATM    4  C   LIG     1      15.804  34.973  20.004  1.00  0.00     0.005 C 
ENDBRANCH   2   3
ENDBRANCH   1   2
BRANCH   1   5
HETATM    5  C   LIG     1      14.553  32.193  17.587  1.00  0.00     0.069 C 
BRANCH   5   6
HETATM    6  C   LIG     1      13.767  31.221  16.759  1.00  0.00     0.231 C 
HETATM    7  O   LIG     1      12.567  31.086  16.936  1.00  0.00    -0.307 OA
ENDBRANCH   5   6
ENDBRANCH   1   5
TORSDOF 4
ENDMDL
MODEL 20
REMARK VINA RESULT:      -3.5     11.219     12.166
REMARK  4 active torsions:
REMARK  status: ('A' for Active; 'I' for Inactive)
REMARK    1  A    between atoms: C_2  and  C_3 
REMARK    2  A    between atoms: C_3  and  C_4 
REMARK    3  A    between atoms: C_4  and  C_5 
REMARK    4  A    between atoms: C_5  and  C_6 
ROOT
HETATM    1  C   LIG     1      14.619  31.250  15.588  1.00  0.00     0.007 C 
ENDROOT
BRANCH   1   2
HETATM    2  C   LIG     1      15.146  30.434  14.395  1.00  0.00     0.000 C 
BRANCH   2   3
HETATM    3  C   LIG     1      14.359  29.146  14.094  1.00  0.00    -0.005 C 
HETATM    4  C   LIG     1      15.254  27.986  13.663  1.00  0.00     0.005 C 
ENDBRANCH   2   3
ENDBRANCH   1   2
BRANCH   1   5
HETATM    5  C   LIG     1      15.535  32.425  15.959  1.00  0.00     0.069 C 
BRANCH   5   6
HETATM    6  C   LIG     1      16.773  32.427  15.113  1.00  0.00     0.231 C 
HETATM    7  O   LIG     1      17.695  33.185  15.367  1.00  0.00    -0.307 OA
ENDBRANCH   5   6
ENDBRANCH   1   5
TORSDOF 4
ENDMDL
