MODEL 1
REMARK VINA RESULT:      -9.3      0.000      0.000
REMARK  4 active torsions:
REMARK  status: ('A' for Active; 'I' for Inactive)
REMARK    1  A    between atoms: O_1  and  C_2 
REMARK    2  A    between atoms: C_2  and  C_12 
REMARK    3  A    between atoms: C_2  and  C_3 
REMARK    4  A    between atoms: C_12  and  C_13 
ROOT
HETATM    1  C   LIG     1      17.098  35.589  20.758  1.00  0.00     0.130 C 
ENDROOT
BRANCH   1   2
HETATM    2  O   LIG     1      16.225  35.622  19.654  1.00  0.00    -0.395 OA
HETATM    3  H   LIG     1      15.735  34.758  19.633  1.00  0.00     0.210 HD
ENDBRANCH   1   2
BRANCH   1   4
HETATM    4  C   LIG     1      16.277  35.632  22.081  1.00  0.00     0.038 C 
BRANCH   4   5
HETATM    5  C   LIG     1      17.053  36.077  23.350  1.00  0.00     0.005 C 
HETATM    6  C   LIG     1      17.209  34.926  24.372  1.00  0.00     0.108 C 
HETATM    7  C   LIG     1      17.779  35.399  25.684  1.00  0.00     0.224 C 
HETATM    8  N   LIG     1      17.755  36.785  26.039  1.00  0.00    -0.298 N 
HETATM    9  O   LIG     1      18.263  34.559  26.487  1.00  0.00    -0.273 OA
HETATM   10  C   LIG     1      17.097  37.741  25.206  1.00  0.00     0.224 C 
HETATM   11  H   LIG     1      18.219  37.100  26.922  1.00  0.00     0.171 HD
HETATM   12  C   LIG     1      16.340  37.280  23.998  1.00  0.00     0.108 C 
HETATM   13  O   LIG     1      17.148  38.967  25.491  1.00  0.00    -0.273 OA
ENDBRANCH   4   5
ENDBRANCH   1   4
BRANCH   1  14
HETATM   14  C   LIG     1      18.155  36.735  20.674  1.00  0.00     0.085 C 
HETATM   15  C   LIG     1      17.647  38.043  21.321  1.00  0.00     0.019 C 
HETATM   16  C   LIG     1      18.681  39.209  21.257  1.00  0.00    -0.017 C 
HETATM   17  C   LIG     1      19.229  39.540  22.653  1.00  0.00     0.010 C 
HETATM   18  C   LIG     1      19.857  38.947  20.282  1.00  0.00     0.016 C 
HETATM   19  C   LIG     1      19.410  38.280  18.965  1.00  0.00     0.052 C 
HETATM   20  C   LIG     1      18.648  39.267  18.069  1.00  0.00     0.018 C 
HETATM   21  C   LIG     1      18.567  37.057  19.245  1.00  0.00     0.137 C 
HETATM   22  O   LIG     1      18.206  36.357  18.310  1.00  0.00    -0.297 OA
ENDBRANCH   1  14
TORSDOF 4
ENDMDL
MODEL 2
REMARK VINA RESULT:      -8.7      3.612      5.620
REMARK  4 active torsions:
REMARK  status: ('A' for Active; 'I' for Inactive)
REMARK    1  A    between atoms: O_1  and  C_2 
REMARK    2  A    between atoms: C_2  and  C_12 
REMARK    3  A    between atoms: C_2  and  C_3 
REMARK    4  A    between atoms: C_12  and  C_13 
ROOT
HETATM    1  C   LIG     1      15.625  33.700  20.463  1.00  0.00     0.130 C 
ENDROOT
BRANCH   1   2
HETATM    2  O   LIG     1      14.314  33.701  20.977  1.00  0.00    -0.395 OA
HETATM    3  H   LIG     1      13.797  33.013  20.482  1.00  0.00     0.210 HD
ENDBRANCH   1   2
BRANCH   1   4
HETATM    4  C   LIG     1      16.248  35.120  20.607  1.00  0.00     0.038 C 
BRANCH   4   5
HETATM    5  C   LIG     1      16.225  35.732  22.034  1.00  0.00     0.005 C 
HETATM    6  C   LIG     1      16.597  37.234  22.031  1.00  0.00     0.108 C 
HETATM    7  C   LIG     1      16.773  37.781  23.423  1.00  0.00     0.224 C 
HETATM    8  N   LIG     1      16.987  36.908  24.536  1.00  0.00    -0.298 N 
HETATM    9  O   LIG     1      16.755  39.028  23.605  1.00  0.00    -0.273 OA
HETATM   10  C   LIG     1      17.142  35.502  24.341  1.00  0.00     0.224 C 
HETATM   11  H   LIG     1      17.037  37.305  25.502  1.00  0.00     0.171 HD
HETATM   12  C   LIG     1      17.180  34.942  22.951  1.00  0.00     0.108 C 
HETATM   13  O   LIG     1      17.254  34.735  25.334  1.00  0.00    -0.273 OA
ENDBRANCH   4   5
ENDBRANCH   1   4
BRANCH   1  14
HETATM   14  C   LIG     1      15.651  33.185  18.989  1.00  0.00     0.085 C 
HETATM   15  C   LIG     1      15.277  34.292  17.979  1.00  0.00     0.019 C 
HETATM   16  C   LIG     1      15.296  33.811  16.495  1.00  0.00    -0.017 C 
HETATM   17  C   LIG     1      16.457  34.451  15.721  1.00  0.00     0.010 C 
HETATM   18  C   LIG     1      15.350  32.269  16.341  1.00  0.00     0.016 C 
HETATM   19  C   LIG     1      14.446  31.531  17.347  1.00  0.00     0.052 C 
HETATM   20  C   LIG     1      12.962  31.696  16.992  1.00  0.00     0.018 C 
HETATM   21  C   LIG     1      14.711  32.011  18.756  1.00  0.00     0.137 C 
HETATM   22  O   LIG     1      14.141  31.461  19.688  1.00  0.00    -0.297 OA
ENDBRANCH   1  14
TORSDOF 4
ENDMDL
MODEL 3
REMARK VINA RESULT:      -8.3      3.135      5.608
REMARK  4 active torsions:
REMARK  status: ('A' for Active; 'I' for Inactive)
REMARK    1  A    between atoms: O_1  and  C_2 
REMARK    2  A    between atoms: C_2  and  C_12 
REMARK    3  A    between atoms: C_2  and  C_3 
REMARK    4  A    between atoms: C_12  and  C_13 
ROOT
HETATM    1  C   LIG     1      16.335  36.041  22.240  1.00  0.00     0.130 C 
ENDROOT
BRANCH   1   2
HETATM    2  O   LIG     1      17.233  34.996  22.530  1.00  0.00    -0.395 OA
HETATM    3  H   LIG     1      18.153  35.348  22.403  1.00  0.00     0.210 HD
ENDBRANCH   1   2
BRANCH   1   4
HETATM    4  C   LIG     1      15.186  35.512  21.331  1.00  0.00     0.038 C 
BRANCH   4   5
HETATM    5  C   LIG     1      15.569  34.384  20.337  1.00  0.00     0.005 C 
HETATM    6  C   LIG     1      15.315  34.790  18.866  1.00  0.00     0.108 C 
HETATM    7  C   LIG     1      15.492  33.636  17.915  1.00  0.00     0.224 C 
HETATM    8  N   LIG     1      15.469  32.285  18.384  1.00  0.00    -0.298 N 
HETATM    9  O   LIG     1      15.640  33.865  16.685  1.00  0.00    -0.273 OA
HETATM   10  C   LIG     1      15.173  31.993  19.751  1.00  0.00     0.224 C 
HETATM   11  H   LIG     1      15.663  31.502  17.719  1.00  0.00     0.171 HD
HETATM   12  C   LIG     1      14.788  33.101  20.684  1.00  0.00     0.108 C 
HETATM   13  O   LIG     1      15.229  30.806  20.169  1.00  0.00    -0.273 OA
ENDBRANCH   4   5
ENDBRANCH   1   4
BRANCH   1  14
HETATM   14  C   LIG     1      17.077  37.263  21.612  1.00  0.00     0.085 C 
HETATM   15  C   LIG     1      18.258  36.829  20.716  1.00  0.00     0.019 C 
HETATM   16  C   LIG     1      19.020  38.026  20.069  1.00  0.00    -0.017 C 
HETATM   17  C   LIG     1      18.784  38.079  18.553  1.00  0.00     0.010 C 
HETATM   18  C   LIG     1      18.674  39.399  20.701  1.00  0.00     0.016 C 
HETATM   19  C   LIG     1      18.552  39.341  22.237  1.00  0.00     0.052 C 
HETATM   20  C   LIG     1      19.925  39.177  22.902  1.00  0.00     0.018 C 
HETATM   21  C   LIG     1      17.621  38.227  22.657  1.00  0.00     0.137 C 
HETATM   22  O   LIG     1      17.341  38.101  23.840  1.00  0.00    -0.297 OA
ENDBRANCH   1  14
TORSDOF 4
ENDMDL
MODEL 4
REMARK VINA RESULT:      -8.2      3.632      5.969
REMARK  4 active torsions:
REMARK  status: ('A' for Active; 'I' for Inactive)
REMARK    1  A    between atoms: O_1  and  C_2 
REMARK    2  A    between atoms: C_2  and  C_12 
REMARK    3  A    between atoms: C_2  and  C_3 
REMARK    4  A    between atoms: C_12  and  C_13 
ROOT
HETATM    1  C   LIG     1      15.884  35.226  21.797  1.00  0.00     0.130 C 
ENDROOT
BRANCH   1   2
HETATM    2  O   LIG     1      16.174  34.922  23.142  1.00  0.00    -0.395 OA
HETATM    3  H   LIG     1      15.834  34.006  23.322  1.00  0.00     0.210 HD
ENDBRANCH   1   2
BRANCH   1   4
HETATM    4  C   LIG     1      16.272  34.021  20.890  1.00  0.00     0.038 C 
BRANCH   4   5
HETATM    5  C   LIG     1      15.306  33.716  19.714  1.00  0.00     0.005 C 
HETATM    6  C   LIG     1      15.131  32.196  19.481  1.00  0.00     0.108 C 
HETATM    7  C   LIG     1      14.360  31.895  18.223  1.00  0.00     0.224 C 
HETATM    8  N   LIG     1      14.211  32.881  17.197  1.00  0.00    -0.298 N 
HETATM    9  O   LIG     1      13.860  30.750  18.063  1.00  0.00    -0.273 OA
HETATM   10  C   LIG     1      14.877  34.142  17.295  1.00  0.00     0.224 C 
HETATM   11  H   LIG     1      13.614  32.675  16.364  1.00  0.00     0.171 HD
HETATM   12  C   LIG     1      15.818  34.401  18.431  1.00  0.00     0.108 C 
HETATM   13  O   LIG     1      14.678  35.029  16.423  1.00  0.00    -0.273 OA
ENDBRANCH   4   5
ENDBRANCH   1   4
BRANCH   1  14
HETATM   14  C   LIG     1      16.579  36.552  21.358  1.00  0.00     0.085 C 
HETATM   15  C   LIG     1      18.005  36.310  20.814  1.00  0.00     0.019 C 
HETATM   16  C   LIG     1      18.727  37.617  20.362  1.00  0.00    -0.017 C 
HETATM   17  C   LIG     1      18.893  37.658  18.836  1.00  0.00     0.010 C 
HETATM   18  C   LIG     1      18.031  38.914  20.848  1.00  0.00     0.016 C 
HETATM   19  C   LIG     1      17.518  38.815  22.298  1.00  0.00     0.052 C 
HETATM   20  C   LIG     1      18.677  38.843  23.305  1.00  0.00     0.018 C 
HETATM   21  C   LIG     1      16.683  37.569  22.486  1.00  0.00     0.137 C 
HETATM   22  O   LIG     1      16.122  37.385  23.557  1.00  0.00    -0.297 OA
ENDBRANCH   1  14
TORSDOF 4
ENDMDL
MODEL 5
REMARK VINA RESULT:      -8.0      3.457      5.757
REMARK  4 active torsions:
REMARK  status: ('A' for Active; 'I' for Inactive)
REMARK    1  A    between atoms: O_1  and  C_2 
REMARK    2  A    between atoms: C_2  and  C_12 
REMARK    3  A    between atoms: C_2  and  C_3 
REMARK    4  A    between atoms: C_12  and  C_13 
ROOT
HETATM    1  C   LIG     1      15.733  35.891  21.232  1.00  0.00     0.130 C 
ENDROOT
BRANCH   1   2
HETATM    2  O   LIG     1      14.456  36.095  21.788  1.00  0.00    -0.395 OA
HETATM    3  H   LIG     1      14.576  36.277  22.757  1.00  0.00     0.210 HD
ENDBRANCH   1   2
BRANCH   1   4
HETATM    4  C   LIG     1      16.065  34.370  21.221  1.00  0.00     0.038 C 
BRANCH   4   5
HETATM    5  C   LIG     1      15.858  33.638  19.867  1.00  0.00     0.005 C 
HETATM    6  C   LIG     1      15.544  34.621  18.714  1.00  0.00     0.108 C 
HETATM    7  C   LIG     1      15.144  33.908  17.449  1.00  0.00     0.224 C 
HETATM    8  N   LIG     1      14.708  32.546  17.477  1.00  0.00    -0.298 N 
HETATM    9  O   LIG     1      15.173  34.530  16.354  1.00  0.00    -0.273 OA
HETATM   10  C   LIG     1      14.542  31.859  18.719  1.00  0.00     0.224 C 
HETATM   11  H   LIG     1      14.503  32.050  16.580  1.00  0.00     0.171 HD
HETATM   12  C   LIG     1      14.731  32.596  20.010  1.00  0.00     0.108 C 
HETATM   13  O   LIG     1      14.231  30.638  18.728  1.00  0.00    -0.273 OA
ENDBRANCH   4   5
ENDBRANCH   1   4
BRANCH   1  14
HETATM   14  C   LIG     1      16.814  36.732  21.983  1.00  0.00     0.085 C 
HETATM   15  C   LIG     1      16.188  37.865  22.826  1.00  0.00     0.019 C 
HETATM   16  C   LIG     1      17.241  38.723  23.593  1.00  0.00    -0.017 C 
HETATM   17  C   LIG     1      17.156  38.481  25.106  1.00  0.00     0.010 C 
HETATM   18  C   LIG     1      18.697  38.501  23.108  1.00  0.00     0.016 C 
HETATM   19  C   LIG     1      18.810  38.385  21.575  1.00  0.00     0.052 C 
HETATM   20  C   LIG     1      18.598  39.743  20.894  1.00  0.00     0.018 C 
HETATM   21  C   LIG     1      17.830  37.364  21.043  1.00  0.00     0.137 C 
HETATM   22  O   LIG     1      17.853  37.083  19.853  1.00  0.00    -0.297 OA
ENDBRANCH   1  14
TORSDOF 4
ENDMDL
MODEL 6
REMARK VINA RESULT:      -8.0      3.679      6.163
REMARK  4 active torsions:
REMARK  status: ('A' for Active; 'I' for Inactive)
REMARK    1  A    between atoms: O_1  and  C_2 
REMARK    2  A    between atoms: C_2  and  C_12 
REMARK    3  A    between atoms: C_2  and  C_3 
REMARK    4  A    between atoms: C_12  and  C_13 
ROOT
HETATM    1  C   LIG     1      16.356  35.911  21.569  1.00  0.00     0.130 C 
ENDROOT
BRANCH   1   2
HETATM    2  O   LIG     1      15.037  36.382  21.723  1.00  0.00    -0.395 OA
HETATM    3  H   LIG     1      14.564  36.234  20.862  1.00  0.00     0.210 HD
ENDBRANCH   1   2
BRANCH   1   4
HETATM    4  C   LIG     1      16.337  34.387  21.250  1.00  0.00     0.038 C 
BRANCH   4   5
HETATM    5  C   LIG     1      15.415  33.947  20.081  1.00  0.00     0.005 C 
HETATM    6  C   LIG     1      15.298  32.408  19.977  1.00  0.00     0.108 C 
HETATM    7  C   LIG     1      14.574  31.973  18.731  1.00  0.00     0.224 C 
HETATM    8  N   LIG     1      14.420  32.861  17.620  1.00  0.00    -0.298 N 
HETATM    9  O   LIG     1      14.117  30.801  18.658  1.00  0.00    -0.273 OA
HETATM   10  C   LIG     1      15.040  34.148  17.624  1.00  0.00     0.224 C 
HETATM   11  H   LIG     1      13.854  32.563  16.793  1.00  0.00     0.171 HD
HETATM   12  C   LIG     1      15.940  34.538  18.758  1.00  0.00     0.108 C 
HETATM   13  O   LIG     1      14.835  34.950  16.675  1.00  0.00    -0.273 OA
ENDBRANCH   4   5
ENDBRANCH   1   4
BRANCH   1  14
HETATM   14  C   LIG     1      17.222  36.247  22.824  1.00  0.00     0.085 C 
HETATM   15  C   LIG     1      16.615  35.671  24.122  1.00  0.00     0.019 C 
HETATM   16  C   LIG     1      17.459  35.986  25.396  1.00  0.00    -0.017 C 
HETATM   17  C   LIG     1      18.115  34.716  25.953  1.00  0.00     0.010 C 
HETATM   18  C   LIG     1      18.535  37.079  25.175  1.00  0.00     0.016 C 
HETATM   19  C   LIG     1      18.035  38.252  24.309  1.00  0.00     0.052 C 
HETATM   20  C   LIG     1      17.041  39.132  25.079  1.00  0.00     0.018 C 
HETATM   21  C   LIG     1      17.413  37.743  23.028  1.00  0.00     0.137 C 
HETATM   22  O   LIG     1      17.046  38.549  22.185  1.00  0.00    -0.297 OA
ENDBRANCH   1  14
TORSDOF 4
ENDMDL
MODEL 7
REMARK VINA RESULT:      -8.0      3.094      4.906
REMARK  4 active torsions:
REMARK  status: ('A' for Active; 'I' for Inactive)
REMARK    1  A    between atoms: O_1  and  C_2 
REMARK    2  A    between atoms: C_2  and  C_12 
REMARK    3  A    between atoms: C_2  and  C_3 
REMARK    4  A    between atoms: C_12  and  C_13 
ROOT
HETATM    1  C   LIG     1      15.992  35.230  20.477  1.00  0.00     0.130 C 
ENDROOT
BRANCH   1   2
HETATM    2  O   LIG     1      17.175  35.601  19.809  1.00  0.00    -0.395 OA
HETATM    3  H   LIG     1      17.940  35.288  20.359  1.00  0.00     0.210 HD
ENDBRANCH   1   2
BRANCH   1   4
HETATM    4  C   LIG     1      16.300  34.951  21.978  1.00  0.00     0.038 C 
BRANCH   4   5
HETATM    5  C   LIG     1      16.901  36.136  22.781  1.00  0.00     0.005 C 
HETATM    6  C   LIG     1      17.118  35.780  24.271  1.00  0.00     0.108 C 
HETATM    7  C   LIG     1      17.508  36.979  25.094  1.00  0.00     0.224 C 
HETATM    8  N   LIG     1      17.273  38.308  24.617  1.00  0.00    -0.298 N 
HETATM    9  O   LIG     1      18.028  36.808  26.229  1.00  0.00    -0.273 OA
HETATM   10  C   LIG     1      16.569  38.530  23.395  1.00  0.00     0.224 C 
HETATM   11  H   LIG     1      17.615  39.124  25.173  1.00  0.00     0.171 HD
HETATM   12  C   LIG     1      15.984  37.368  22.650  1.00  0.00     0.108 C 
HETATM   13  O   LIG     1      16.434  39.700  22.948  1.00  0.00    -0.273 OA
ENDBRANCH   4   5
ENDBRANCH   1   4
BRANCH   1  14
HETATM   14  C   LIG     1      15.305  34.018  19.773  1.00  0.00     0.085 C 
HETATM   15  C   LIG     1      15.988  32.677  20.125  1.00  0.00     0.019 C 
HETATM   16  C   LIG     1      15.324  31.443  19.441  1.00  0.00    -0.017 C 
HETATM   17  C   LIG     1      14.606  30.559  20.470  1.00  0.00     0.010 C 
HETATM   18  C   LIG     1      14.346  31.817  18.298  1.00  0.00     0.016 C 
HETATM   19  C   LIG     1      14.866  32.965  17.410  1.00  0.00     0.052 C 
HETATM   20  C   LIG     1      16.022  32.500  16.514  1.00  0.00     0.018 C 
HETATM   21  C   LIG     1      15.291  34.143  18.256  1.00  0.00     0.137 C 
HETATM   22  O   LIG     1      15.644  35.175  17.704  1.00  0.00    -0.297 OA
ENDBRANCH   1  14
TORSDOF 4
ENDMDL
MODEL 8
REMARK VINA RESULT:      -7.7      3.431      6.381
REMARK  4 active torsions:
REMARK  status: ('A' for Active; 'I' for Inactive)
REMARK    1  A    between atoms: O_1  and  C_2 
REMARK    2  A    between atoms: C_2  and  C_12 
REMARK    3  A    between atoms: C_2  and  C_3 
REMARK    4  A    between atoms: C_12  and  C_13 
ROOT
HETATM    1  C   LIG     1      16.463  34.979  22.331  1.00  0.00     0.130 C 
ENDROOT
BRANCH   1   2
HETATM    2  O   LIG     1      17.704  34.339  22.150  1.00  0.00    -0.395 OA
HETATM    3  H   LIG     1      18.184  34.364  23.019  1.00  0.00     0.210 HD
ENDBRANCH   1   2
BRANCH   1   4
HETATM    4  C   LIG     1      15.828  35.301  20.946  1.00  0.00     0.038 C 
BRANCH   4   5
HETATM    5  C   LIG     1      15.775  34.127  19.932  1.00  0.00     0.005 C 
HETATM    6  C   LIG     1      15.301  34.585  18.532  1.00  0.00     0.108 C 
HETATM    7  C   LIG     1      15.053  33.425  17.604  1.00  0.00     0.224 C 
HETATM    8  N   LIG     1      14.872  32.101  18.114  1.00  0.00    -0.298 N 
HETATM    9  O   LIG     1      14.982  33.630  16.363  1.00  0.00    -0.273 OA
HETATM   10  C   LIG     1      14.818  31.861  19.521  1.00  0.00     0.224 C 
HETATM   11  H   LIG     1      14.771  31.300  17.449  1.00  0.00     0.171 HD
HETATM   12  C   LIG     1      14.854  33.017  20.475  1.00  0.00     0.108 C 
HETATM   13  O   LIG     1      14.734  30.683  19.958  1.00  0.00    -0.273 OA
ENDBRANCH   4   5
ENDBRANCH   1   4
BRANCH   1  14
HETATM   14  C   LIG     1      16.610  36.248  23.229  1.00  0.00     0.085 C 
HETATM   15  C   LIG     1      17.620  37.261  22.645  1.00  0.00     0.019 C 
HETATM   16  C   LIG     1      17.789  38.543  23.517  1.00  0.00    -0.017 C 
HETATM   17  C   LIG     1      17.196  39.772  22.814  1.00  0.00     0.010 C 
HETATM   18  C   LIG     1      17.187  38.412  24.940  1.00  0.00     0.016 C 
HETATM   19  C   LIG     1      17.457  37.038  25.584  1.00  0.00     0.052 C 
HETATM   20  C   LIG     1      18.928  36.891  25.995  1.00  0.00     0.018 C 
HETATM   21  C   LIG     1      17.053  35.921  24.648  1.00  0.00     0.137 C 
HETATM   22  O   LIG     1      17.116  34.765  25.041  1.00  0.00    -0.297 OA
ENDBRANCH   1  14
TORSDOF 4
ENDMDL
MODEL 9
REMARK VINA RESULT:      -7.6      3.464      5.626
REMARK  4 active torsions:
REMARK  status: ('A' for Active; 'I' for Inactive)
REMARK    1  A    between atoms: O_1  and  C_2 
REMARK    2  A    between atoms: C_2  and  C_12 
REMARK    3  A    between atoms: C_2  and  C_3 
REMARK    4  A    between atoms: C_12  and  C_13 
ROOT
HETATM    1  C   LIG     1      15.601  36.115  21.507  1.00  0.00     0.130 C 
ENDROOT
BRANCH   1   2
HETATM    2  O   LIG     1      14.370  36.175  22.187  1.00  0.00    -0.395 OA
HETATM    3  H   LIG     1      14.520  36.669  23.035  1.00  0.00     0.210 HD
ENDBRANCH   1   2
BRANCH   1   4
HETATM    4  C   LIG     1      15.936  34.636  21.154  1.00  0.00     0.038 C 
BRANCH   4   5
HETATM    5  C   LIG     1      15.169  34.034  19.946  1.00  0.00     0.005 C 
HETATM    6  C   LIG     1      15.159  32.486  19.973  1.00  0.00     0.108 C 
HETATM    7  C   LIG     1      14.596  31.896  18.707  1.00  0.00     0.224 C 
HETATM    8  N   LIG     1      14.504  32.674  17.510  1.00  0.00    -0.298 N 
HETATM    9  O   LIG     1      14.222  30.693  18.699  1.00  0.00    -0.273 OA
HETATM   10  C   LIG     1      15.039  33.997  17.456  1.00  0.00     0.224 C 
HETATM   11  H   LIG     1      14.046  32.266  16.663  1.00  0.00     0.171 HD
HETATM   12  C   LIG     1      15.791  34.545  18.631  1.00  0.00     0.108 C 
HETATM   13  O   LIG     1      14.886  34.698  16.421  1.00  0.00    -0.273 OA
ENDBRANCH   4   5
ENDBRANCH   1   4
BRANCH   1  14
HETATM   14  C   LIG     1      16.734  36.802  22.332  1.00  0.00     0.085 C 
HETATM   15  C   LIG     1      16.174  37.803  23.368  1.00  0.00     0.019 C 
HETATM   16  C   LIG     1      17.281  38.506  24.213  1.00  0.00    -0.017 C 
HETATM   17  C   LIG     1      17.246  38.032  25.673  1.00  0.00     0.010 C 
HETATM   18  C   LIG     1      18.710  38.330  23.639  1.00  0.00     0.016 C 
HETATM   19  C   LIG     1      18.761  38.452  22.103  1.00  0.00     0.052 C 
HETATM   20  C   LIG     1      18.562  39.906  21.651  1.00  0.00     0.018 C 
HETATM   21  C   LIG     1      17.732  37.551  21.460  1.00  0.00     0.137 C 
HETATM   22  O   LIG     1      17.701  37.459  20.241  1.00  0.00    -0.297 OA
ENDBRANCH   1  14
TORSDOF 4
ENDMDL
MODEL 10
REMARK VINA RESULT:      -7.4      8.253     10.199
REMARK  4 active torsions:
REMARK  status: ('A' for Active; 'I' for Inactive)
REMARK    1  A    between atoms: O_1  and  C_2 
REMARK    2  A    between atoms: C_2  and  C_12 
REMARK    3  A    between atoms: C_2  and  C_3 
REMARK    4  A    between atoms: C_12  and  C_13 
ROOT
HETATM    1  C   LIG     1      17.484  33.884  13.708  1.00  0.00     0.130 C 
ENDROOT
BRANCH   1   2
HETATM    2  O   LIG     1      17.721  35.196  14.160  1.00  0.00    -0.395 OA
HETATM    3  H   LIG     1      16.858  35.559  14.492  1.00  0.00     0.210 HD
ENDBRANCH   1   2
BRANCH   1   4
HETATM    4  C   LIG     1      17.849  32.867  14.829  1.00  0.00     0.038 C 
BRANCH   4   5
HETATM    5  C   LIG     1      16.680  32.002  15.372  1.00  0.00     0.005 C 
HETATM    6  C   LIG     1      15.910  31.284  14.238  1.00  0.00     0.108 C 
HETATM    7  C   LIG     1      14.658  30.610  14.735  1.00  0.00     0.224 C 
HETATM    8  N   LIG     1      14.074  30.974  15.990  1.00  0.00    -0.298 N 
HETATM    9  O   LIG     1      14.105  29.729  14.024  1.00  0.00    -0.273 OA
HETATM   10  C   LIG     1      14.606  32.057  16.755  1.00  0.00     0.224 C 
HETATM   11  H   LIG     1      13.246  30.445  16.348  1.00  0.00     0.171 HD
HETATM   12  C   LIG     1      15.723  32.886  16.197  1.00  0.00     0.108 C 
HETATM   13  O   LIG     1      14.131  32.319  17.892  1.00  0.00    -0.273 OA
ENDBRANCH   4   5
ENDBRANCH   1   4
BRANCH   1  14
HETATM   14  C   LIG     1      18.247  33.601  12.375  1.00  0.00     0.085 C 
HETATM   15  C   LIG     1      19.754  33.355  12.608  1.00  0.00     0.019 C 
HETATM   16  C   LIG     1      20.546  33.066  11.295  1.00  0.00    -0.017 C 
HETATM   17  C   LIG     1      21.017  31.606  11.243  1.00  0.00     0.010 C 
HETATM   18  C   LIG     1      19.759  33.409  10.005  1.00  0.00     0.016 C 
HETATM   19  C   LIG     1      18.964  34.725  10.115  1.00  0.00     0.052 C 
HETATM   20  C   LIG     1      19.895  35.945  10.089  1.00  0.00     0.018 C 
HETATM   21  C   LIG     1      18.114  34.732  11.366  1.00  0.00     0.137 C 
HETATM   22  O   LIG     1      17.350  35.667  11.559  1.00  0.00    -0.297 OA
ENDBRANCH   1  14
TORSDOF 4
ENDMDL
MODEL 11
REMARK VINA RESULT:      -7.2      3.909      6.086
REMARK  4 active torsions:
REMARK  status: ('A' for Active; 'I' for Inactive)
REMARK    1  A    between atoms: O_1  and  C_2 
REMARK    2  A    between atoms: C_2  and  C_12 
REMARK    3  A    between atoms: C_2  and  C_3 
REMARK    4  A    between atoms: C_12  and  C_13 
ROOT
HETATM    1  C   LIG     1      15.449  33.530  20.375  1.00  0.00     0.130 C 
ENDROOT
BRANCH   1   2
HETATM    2  O   LIG     1      14.379  32.892  21.033  1.00  0.00    -0.395 OA
HETATM    3  H   LIG     1      14.594  31.924  21.084  1.00  0.00     0.210 HD
ENDBRANCH   1   2
BRANCH   1   4
HETATM    4  C   LIG     1      15.298  35.075  20.501  1.00  0.00     0.038 C 
BRANCH   4   5
HETATM    5  C   LIG     1      16.558  35.846  20.978  1.00  0.00     0.005 C 
HETATM    6  C   LIG     1      16.207  36.995  21.952  1.00  0.00     0.108 C 
HETATM    7  C   LIG     1      17.394  37.869  22.258  1.00  0.00     0.224 C 
HETATM    8  N   LIG     1      18.549  37.865  21.413  1.00  0.00    -0.298 N 
HETATM    9  O   LIG     1      17.360  38.631  23.260  1.00  0.00    -0.273 OA
HETATM   10  C   LIG     1      18.563  37.109  20.201  1.00  0.00     0.224 C 
HETATM   11  H   LIG     1      19.389  38.426  21.682  1.00  0.00     0.171 HD
HETATM   12  C   LIG     1      17.325  36.391  19.756  1.00  0.00     0.108 C 
HETATM   13  O   LIG     1      19.611  37.053  19.504  1.00  0.00    -0.273 OA
ENDBRANCH   4   5
ENDBRANCH   1   4
BRANCH   1  14
HETATM   14  C   LIG     1      15.557  33.060  18.890  1.00  0.00     0.085 C 
HETATM   15  C   LIG     1      15.212  34.191  17.895  1.00  0.00     0.019 C 
HETATM   16  C   LIG     1      15.314  33.756  16.401  1.00  0.00    -0.017 C 
HETATM   17  C   LIG     1      16.499  34.439  15.705  1.00  0.00     0.010 C 
HETATM   18  C   LIG     1      15.405  32.221  16.204  1.00  0.00     0.016 C 
HETATM   19  C   LIG     1      14.466  31.437  17.142  1.00  0.00     0.052 C 
HETATM   20  C   LIG     1      12.998  31.587  16.718  1.00  0.00     0.018 C 
HETATM   21  C   LIG     1      14.652  31.878  18.576  1.00  0.00     0.137 C 
HETATM   22  O   LIG     1      14.047  31.291  19.462  1.00  0.00    -0.297 OA
ENDBRANCH   1  14
TORSDOF 4
ENDMDL
MODEL 12
REMARK VINA RESULT:      -6.8      8.387     10.216
REMARK  4 active torsions:
REMARK  status: ('A' for Active; 'I' for Inactive)
REMARK    1  A    between atoms: O_1  and  C_2 
REMARK    2  A    between atoms: C_2  and  C_12 
REMARK    3  A    between atoms: C_2  and  C_3 
REMARK    4  A    between atoms: C_12  and  C_13 
ROOT
HETATM    1  C   LIG     1      17.500  34.018  12.803  1.00  0.00     0.130 C 
ENDROOT
BRANCH   1   2
HETATM    2  O   LIG     1      17.174  35.378  12.632  1.00  0.00    -0.395 OA
HETATM    3  H   LIG     1      17.705  35.898  13.290  1.00  0.00     0.210 HD
ENDBRANCH   1   2
BRANCH   1   4
HETATM    4  C   LIG     1      17.331  33.620  14.298  1.00  0.00     0.038 C 
BRANCH   4   5
HETATM    5  C   LIG     1      16.054  32.810  14.647  1.00  0.00     0.005 C 
HETATM    6  C   LIG     1      15.702  32.893  16.151  1.00  0.00     0.108 C 
HETATM    7  C   LIG     1      14.588  31.953  16.531  1.00  0.00     0.224 C 
HETATM    8  N   LIG     1      14.237  30.850  15.689  1.00  0.00    -0.298 N 
HETATM    9  O   LIG     1      13.974  32.127  17.617  1.00  0.00    -0.273 OA
HETATM   10  C   LIG     1      15.000  30.553  14.519  1.00  0.00     0.224 C 
HETATM   11  H   LIG     1      13.416  30.252  15.937  1.00  0.00     0.171 HD
HETATM   12  C   LIG     1      16.240  31.340  14.218  1.00  0.00     0.108 C 
HETATM   13  O   LIG     1      14.636  29.628  13.746  1.00  0.00    -0.273 OA
ENDBRANCH   4   5
ENDBRANCH   1   4
BRANCH   1  14
HETATM   14  C   LIG     1      18.932  33.712  12.262  1.00  0.00     0.085 C 
HETATM   15  C   LIG     1      20.036  34.281  13.181  1.00  0.00     0.019 C 
HETATM   16  C   LIG     1      21.481  33.989  12.671  1.00  0.00    -0.017 C 
HETATM   17  C   LIG     1      22.197  32.983  13.583  1.00  0.00     0.010 C 
HETATM   18  C   LIG     1      21.535  33.495  11.203  1.00  0.00     0.016 C 
HETATM   19  C   LIG     1      20.561  34.251  10.277  1.00  0.00     0.052 C 
HETATM   20  C   LIG     1      21.045  35.682  10.005  1.00  0.00     0.018 C 
HETATM   21  C   LIG     1      19.168  34.263  10.863  1.00  0.00     0.137 C 
HETATM   22  O   LIG     1      18.253  34.744  10.210  1.00  0.00    -0.297 OA
ENDBRANCH   1  14
TORSDOF 4
ENDMDL
MODEL 13
REMARK VINA RESULT:      -6.7      3.465      5.437
REMARK  4 active torsions:
REMARK  status: ('A' for Active; 'I' for Inactive)
REMARK    1  A    between atoms: O_1  and  C_2 
REMARK    2  A    between atoms: C_2  and  C_12 
REMARK    3  A    between atoms: C_2  and  C_3 
REMARK    4  A    between atoms: C_12  and  C_13 
ROOT
HETATM    1  C   LIG     1      15.347  33.639  20.642  1.00  0.00     0.130 C 
ENDROOT
BRANCH   1   2
HETATM    2  O   LIG     1      14.264  33.742  21.536  1.00  0.00    -0.395 OA
HETATM    3  H   LIG     1      13.841  34.629  21.395  1.00  0.00     0.210 HD
ENDBRANCH   1   2
BRANCH   1   4
HETATM    4  C   LIG     1      16.262  34.892  20.777  1.00  0.00     0.038 C 
BRANCH   4   5
HETATM    5  C   LIG     1      16.230  35.613  22.151  1.00  0.00     0.005 C 
HETATM    6  C   LIG     1      16.550  37.122  22.027  1.00  0.00     0.108 C 
HETATM    7  C   LIG     1      16.719  37.783  23.369  1.00  0.00     0.224 C 
HETATM    8  N   LIG     1      16.972  37.008  24.545  1.00  0.00    -0.298 N 
HETATM    9  O   LIG     1      16.659  39.039  23.452  1.00  0.00    -0.273 OA
HETATM   10  C   LIG     1      17.174  35.597  24.459  1.00  0.00     0.224 C 
HETATM   11  H   LIG     1      17.016  37.481  25.477  1.00  0.00     0.171 HD
HETATM   12  C   LIG     1      17.219  34.931  23.117  1.00  0.00     0.108 C 
HETATM   13  O   LIG     1      17.321  34.915  25.508  1.00  0.00    -0.273 OA
ENDBRANCH   4   5
ENDBRANCH   1   4
BRANCH   1  14
HETATM   14  C   LIG     1      14.848  33.421  19.178  1.00  0.00     0.085 C 
HETATM   15  C   LIG     1      15.136  31.989  18.673  1.00  0.00     0.019 C 
HETATM   16  C   LIG     1      14.647  31.735  17.214  1.00  0.00    -0.017 C 
HETATM   17  C   LIG     1      13.456  30.766  17.190  1.00  0.00     0.010 C 
HETATM   18  C   LIG     1      14.283  33.031  16.445  1.00  0.00     0.016 C 
HETATM   19  C   LIG     1      15.274  34.183  16.704  1.00  0.00     0.052 C 
HETATM   20  C   LIG     1      16.619  33.932  16.010  1.00  0.00     0.018 C 
HETATM   21  C   LIG     1      15.473  34.393  18.188  1.00  0.00     0.137 C 
HETATM   22  O   LIG     1      16.159  35.330  18.569  1.00  0.00    -0.297 OA
ENDBRANCH   1  14
TORSDOF 4
ENDMDL
MODEL 14
REMARK VINA RESULT:      -6.4      7.544      9.775
REMARK  4 active torsions:
REMARK  status: ('A' for Active; 'I' for Inactive)
REMARK    1  A    between atoms: O_1  and  C_2 
REMARK    2  A    between atoms: C_2  and  C_12 
REMARK    3  A    between atoms: C_2  and  C_3 
REMARK    4  A    between atoms: C_12  and  C_13 
ROOT
HETATM    1  C   LIG     1      17.529  33.197  13.885  1.00  0.00     0.130 C 
ENDROOT
BRANCH   1   2
HETATM    2  O   LIG     1      18.476  32.923  14.891  1.00  0.00    -0.395 OA
HETATM    3  H   LIG     1      18.569  31.936  14.954  1.00  0.00     0.210 HD
ENDBRANCH   1   2
BRANCH   1   4
HETATM    4  C   LIG     1      16.342  32.195  13.991  1.00  0.00     0.038 C 
BRANCH   4   5
HETATM    5  C   LIG     1      15.335  32.453  15.144  1.00  0.00     0.005 C 
HETATM    6  C   LIG     1      16.002  33.142  16.359  1.00  0.00     0.108 C 
HETATM    7  C   LIG     1      15.084  33.211  17.551  1.00  0.00     0.224 C 
HETATM    8  N   LIG     1      13.935  32.364  17.646  1.00  0.00    -0.298 N 
HETATM    9  O   LIG     1      15.348  34.010  18.489  1.00  0.00    -0.273 OA
HETATM   10  C   LIG     1      13.685  31.360  16.661  1.00  0.00     0.224 C 
HETATM   11  H   LIG     1      13.274  32.478  18.448  1.00  0.00     0.171 HD
HETATM   12  C   LIG     1      14.685  31.122  15.570  1.00  0.00     0.108 C 
HETATM   13  O   LIG     1      12.631  30.672  16.715  1.00  0.00    -0.273 OA
ENDBRANCH   4   5
ENDBRANCH   1   4
BRANCH   1  14
HETATM   14  C   LIG     1      18.192  33.189  12.471  1.00  0.00     0.085 C 
HETATM   15  C   LIG     1      19.710  32.910  12.542  1.00  0.00     0.019 C 
HETATM   16  C   LIG     1      20.404  32.891  11.145  1.00  0.00    -0.017 C 
HETATM   17  C   LIG     1      20.857  31.472  10.771  1.00  0.00     0.010 C 
HETATM   18  C   LIG     1      19.530  33.478  10.007  1.00  0.00     0.016 C 
HETATM   19  C   LIG     1      18.756  34.741  10.433  1.00  0.00     0.052 C 
HETATM   20  C   LIG     1      19.694  35.948  10.582  1.00  0.00     0.018 C 
HETATM   21  C   LIG     1      17.998  34.496  11.717  1.00  0.00     0.137 C 
HETATM   22  O   LIG     1      17.258  35.370  12.147  1.00  0.00    -0.297 OA
ENDBRANCH   1  14
TORSDOF 4
ENDMDL
