REMARK  4 active torsions:
REMARK  status: ('A' for Active; 'I' for Inactive)
REMARK    1  A    between atoms: O_1  and  C_2 
REMARK    2  A    between atoms: C_2  and  C_12 
REMARK    3  A    between atoms: C_2  and  C_3 
REMARK    4  A    between atoms: C_12  and  C_13 
ROOT
HETATM    1  C   LIG     1       0.425  -0.812   1.319  1.00  0.00     0.130 C 
ENDROOT
BRANCH   1   2
HETATM    2  O   LIG     1       0.890   0.194   2.188  1.00  0.00    -0.395 OA
HETATM    3  H   LIG     1       0.412   0.088   3.052  1.00  0.00     0.210 HD
ENDBRANCH   1   2
BRANCH   1   4
HETATM    4  C   LIG     1       1.609  -1.365   0.472  1.00  0.00     0.038 C 
BRANCH   4   5
HETATM    5  C   LIG     1       2.785  -0.383   0.223  1.00  0.00     0.005 C 
HETATM    6  C   LIG     1       2.353   0.846  -0.612  1.00  0.00     0.108 C 
HETATM    7  C   LIG     1       3.525   1.696  -1.027  1.00  0.00     0.224 C 
HETATM    8  N   LIG     1       4.857   1.174  -1.006  1.00  0.00    -0.298 N 
HETATM    9  O   LIG     1       3.325   2.876  -1.420  1.00  0.00    -0.273 OA
HETATM   10  C   LIG     1       5.098  -0.198  -0.690  1.00  0.00     0.224 C 
HETATM   11  H   LIG     1       5.662   1.802  -1.231  1.00  0.00     0.171 HD
HETATM   12  C   LIG     1       3.942  -1.127  -0.473  1.00  0.00     0.108 C 
HETATM   13  O   LIG     1       6.279  -0.627  -0.601  1.00  0.00    -0.273 OA
ENDBRANCH   4   5
ENDBRANCH   1   4
BRANCH   1  14
HETATM   14  C   LIG     1      -0.750  -0.291   0.433  1.00  0.00     0.085 C 
HETATM   15  C   LIG     1      -1.756   0.559   1.241  1.00  0.00     0.019 C 
HETATM   16  C   LIG     1      -2.942   1.099   0.384  1.00  0.00    -0.017 C 
HETATM   17  C   LIG     1      -2.849   2.621   0.207  1.00  0.00     0.010 C 
HETATM   18  C   LIG     1      -3.070   0.417  -1.002  1.00  0.00     0.016 C 
HETATM   19  C   LIG     1      -2.826  -1.104  -0.950  1.00  0.00     0.052 C 
HETATM   20  C   LIG     1      -3.997  -1.836  -0.280  1.00  0.00     0.018 C 
HETATM   21  C   LIG     1      -1.529  -1.413  -0.238  1.00  0.00     0.137 C 
HETATM   22  O   LIG     1      -1.139  -2.571  -0.189  1.00  0.00    -0.297 OA
ENDBRANCH   1  14
TORSDOF 4
