MODEL 1
REMARK VINA RESULT:      -3.3      0.000      0.000
REMARK  0 active torsions:
REMARK  status: ('A' for Active; 'I' for Inactive)
ROOT
HETATM    1 CL   LIG     1      17.176  35.100  23.807  1.00  0.00    -0.091 Cl
HETATM    2  C   LIG     1      17.407  35.810  25.421  1.00  0.00     0.273 C 
HETATM    3 CL   LIG     1      18.462  34.754  26.386  1.00  0.00    -0.091 Cl
HETATM    4 CL   LIG     1      18.157  37.413  25.262  1.00  0.00    -0.091 Cl
ENDROOT
TORSDOF 0
ENDMDL
MODEL 2
REMARK VINA RESULT:      -3.3      0.038      2.514
REMARK  0 active torsions:
REMARK  status: ('A' for Active; 'I' for Inactive)
ROOT
HETATM    1 CL   LIG     1      18.503  34.763  26.394  1.00  0.00    -0.091 Cl
HETATM    2  C   LIG     1      17.419  35.810  25.449  1.00  0.00     0.273 C 
HETATM    3 CL   LIG     1      18.138  37.429  25.304  1.00  0.00    -0.091 Cl
HETATM    4 CL   LIG     1      17.187  35.115  23.829  1.00  0.00    -0.091 Cl
ENDROOT
TORSDOF 0
ENDMDL
MODEL 3
REMARK VINA RESULT:      -3.2      0.234      2.504
REMARK  0 active torsions:
REMARK  status: ('A' for Active; 'I' for Inactive)
ROOT
HETATM    1 CL   LIG     1      17.787  37.348  25.404  1.00  0.00    -0.091 Cl
HETATM    2  C   LIG     1      17.316  35.634  25.445  1.00  0.00     0.273 C 
HETATM    3 CL   LIG     1      17.212  35.009  23.784  1.00  0.00    -0.091 Cl
HETATM    4 CL   LIG     1      18.531  34.707  26.352  1.00  0.00    -0.091 Cl
ENDROOT
TORSDOF 0
ENDMDL
MODEL 4
REMARK VINA RESULT:      -3.0      6.283      6.998
REMARK  0 active torsions:
REMARK  status: ('A' for Active; 'I' for Inactive)
ROOT
HETATM    1 CL   LIG     1      19.272  36.885  19.502  1.00  0.00    -0.091 Cl
HETATM    2  C   LIG     1      19.592  38.624  19.308  1.00  0.00     0.273 C 
HETATM    3 CL   LIG     1      18.861  39.195  17.792  1.00  0.00    -0.091 Cl
HETATM    4 CL   LIG     1      18.888  39.512  20.678  1.00  0.00    -0.091 Cl
ENDROOT
TORSDOF 0
ENDMDL
MODEL 5
REMARK VINA RESULT:      -3.0      1.232      2.211
REMARK  0 active torsions:
REMARK  status: ('A' for Active; 'I' for Inactive)
ROOT
HETATM    1 CL   LIG     1      17.273  34.941  24.715  1.00  0.00    -0.091 Cl
HETATM    2  C   LIG     1      18.040  36.434  25.302  1.00  0.00     0.273 C 
HETATM    3 CL   LIG     1      16.929  37.802  25.068  1.00  0.00    -0.091 Cl
HETATM    4 CL   LIG     1      18.419  36.266  27.031  1.00  0.00    -0.091 Cl
ENDROOT
TORSDOF 0
ENDMDL
MODEL 6
REMARK VINA RESULT:      -3.0      1.215      2.232
REMARK  0 active torsions:
REMARK  status: ('A' for Active; 'I' for Inactive)
ROOT
HETATM    1 CL   LIG     1      18.502  36.225  27.051  1.00  0.00    -0.091 Cl
HETATM    2  C   LIG     1      18.071  36.391  25.333  1.00  0.00     0.273 C 
HETATM    3 CL   LIG     1      17.241  34.917  24.786  1.00  0.00    -0.091 Cl
HETATM    4 CL   LIG     1      16.995  37.790  25.125  1.00  0.00    -0.091 Cl
ENDROOT
TORSDOF 0
ENDMDL
MODEL 7
REMARK VINA RESULT:      -2.9      5.514      6.055
REMARK  0 active torsions:
REMARK  status: ('A' for Active; 'I' for Inactive)
ROOT
HETATM    1 CL   LIG     1      18.676  36.742  19.936  1.00  0.00    -0.091 Cl
HETATM    2  C   LIG     1      18.903  38.505  19.874  1.00  0.00     0.273 C 
HETATM    3 CL   LIG     1      18.607  39.196  21.485  1.00  0.00    -0.091 Cl
HETATM    4 CL   LIG     1      20.567  38.871  19.367  1.00  0.00    -0.091 Cl
ENDROOT
TORSDOF 0
ENDMDL
MODEL 8
REMARK VINA RESULT:      -2.9      5.404      6.026
REMARK  0 active torsions:
REMARK  status: ('A' for Active; 'I' for Inactive)
ROOT
HETATM    1 CL   LIG     1      20.529  38.875  19.378  1.00  0.00    -0.091 Cl
HETATM    2  C   LIG     1      18.909  38.491  20.003  1.00  0.00     0.273 C 
HETATM    3 CL   LIG     1      18.652  36.733  19.945  1.00  0.00    -0.091 Cl
HETATM    4 CL   LIG     1      18.774  39.056  21.684  1.00  0.00    -0.091 Cl
ENDROOT
TORSDOF 0
ENDMDL
MODEL 9
REMARK VINA RESULT:      -2.9      6.151      6.818
REMARK  0 active torsions:
REMARK  status: ('A' for Active; 'I' for Inactive)
ROOT
HETATM    1 CL   LIG     1      18.664  39.271  20.804  1.00  0.00    -0.091 Cl
HETATM    2  C   LIG     1      19.556  38.532  19.454  1.00  0.00     0.273 C 
HETATM    3 CL   LIG     1      19.366  36.766  19.514  1.00  0.00    -0.091 Cl
HETATM    4 CL   LIG     1      18.914  39.146  17.914  1.00  0.00    -0.091 Cl
ENDROOT
TORSDOF 0
ENDMDL
MODEL 10
REMARK VINA RESULT:      -2.8      3.200      4.184
REMARK  0 active torsions:
REMARK  status: ('A' for Active; 'I' for Inactive)
ROOT
HETATM    1 CL   LIG     1      17.669  36.272  20.586  1.00  0.00    -0.091 Cl
HETATM    2  C   LIG     1      16.577  35.171  21.457  1.00  0.00     0.273 C 
HETATM    3 CL   LIG     1      17.050  35.101  23.170  1.00  0.00    -0.091 Cl
HETATM    4 CL   LIG     1      14.907  35.767  21.327  1.00  0.00    -0.091 Cl
ENDROOT
TORSDOF 0
ENDMDL
MODEL 11
REMARK VINA RESULT:      -2.8     12.618     12.855
REMARK  0 active torsions:
REMARK  status: ('A' for Active; 'I' for Inactive)
ROOT
HETATM    1 CL   LIG     1      18.256  45.233  33.261  1.00  0.00    -0.091 Cl
HETATM    2  C   LIG     1      16.692  45.227  34.107  1.00  0.00     0.273 C 
HETATM    3 CL   LIG     1      15.394  45.608  32.953  1.00  0.00    -0.091 Cl
HETATM    4 CL   LIG     1      16.406  43.621  34.813  1.00  0.00    -0.091 Cl
ENDROOT
TORSDOF 0
ENDMDL
MODEL 12
REMARK VINA RESULT:      -2.8      3.557      4.068
REMARK  0 active torsions:
REMARK  status: ('A' for Active; 'I' for Inactive)
ROOT
HETATM    1 CL   LIG     1      18.574  36.644  20.042  1.00  0.00    -0.091 Cl
HETATM    2  C   LIG     1      17.243  36.678  21.222  1.00  0.00     0.273 C 
HETATM    3 CL   LIG     1      17.188  35.131  22.096  1.00  0.00    -0.091 Cl
HETATM    4 CL   LIG     1      17.510  38.003  22.377  1.00  0.00    -0.091 Cl
ENDROOT
TORSDOF 0
ENDMDL
MODEL 13
REMARK VINA RESULT:      -2.8     12.626     12.767
REMARK  0 active torsions:
REMARK  status: ('A' for Active; 'I' for Inactive)
ROOT
HETATM    1 CL   LIG     1      16.365  43.626  34.885  1.00  0.00    -0.091 Cl
HETATM    2  C   LIG     1      16.662  45.215  34.142  1.00  0.00     0.273 C 
HETATM    3 CL   LIG     1      18.217  45.184  33.281  1.00  0.00    -0.091 Cl
HETATM    4 CL   LIG     1      15.355  45.585  32.995  1.00  0.00    -0.091 Cl
ENDROOT
TORSDOF 0
ENDMDL
MODEL 14
REMARK VINA RESULT:      -2.8      3.464      4.652
REMARK  0 active torsions:
REMARK  status: ('A' for Active; 'I' for Inactive)
ROOT
HETATM    1 CL   LIG     1      17.490  37.990  22.472  1.00  0.00    -0.091 Cl
HETATM    2  C   LIG     1      17.178  36.664  21.327  1.00  0.00     0.273 C 
HETATM    3 CL   LIG     1      18.455  36.638  20.090  1.00  0.00    -0.091 Cl
HETATM    4 CL   LIG     1      17.167  35.117  22.202  1.00  0.00    -0.091 Cl
ENDROOT
TORSDOF 0
ENDMDL
MODEL 15
REMARK VINA RESULT:      -2.8      2.106      3.052
REMARK  0 active torsions:
REMARK  status: ('A' for Active; 'I' for Inactive)
ROOT
HETATM    1 CL   LIG     1      17.072  35.419  23.495  1.00  0.00    -0.091 Cl
HETATM    2  C   LIG     1      17.041  37.197  23.547  1.00  0.00     0.273 C 
HETATM    3 CL   LIG     1      15.517  37.782  22.844  1.00  0.00    -0.091 Cl
HETATM    4 CL   LIG     1      17.164  37.741  25.235  1.00  0.00    -0.091 Cl
ENDROOT
TORSDOF 0
ENDMDL
MODEL 16
REMARK VINA RESULT:      -2.7      2.242      3.672
REMARK  0 active torsions:
REMARK  status: ('A' for Active; 'I' for Inactive)
ROOT
HETATM    1 CL   LIG     1      17.176  37.813  24.995  1.00  0.00    -0.091 Cl
HETATM    2  C   LIG     1      16.693  37.196  23.399  1.00  0.00     0.273 C 
HETATM    3 CL   LIG     1      17.597  38.056  22.133  1.00  0.00    -0.091 Cl
HETATM    4 CL   LIG     1      17.049  35.456  23.304  1.00  0.00    -0.091 Cl
ENDROOT
TORSDOF 0
ENDMDL
MODEL 17
REMARK VINA RESULT:      -2.7      2.197      2.751
REMARK  0 active torsions:
REMARK  status: ('A' for Active; 'I' for Inactive)
ROOT
HETATM    1 CL   LIG     1      17.549  37.831  21.988  1.00  0.00    -0.091 Cl
HETATM    2  C   LIG     1      16.731  36.973  23.314  1.00  0.00     0.273 C 
HETATM    3 CL   LIG     1      17.093  35.236  23.208  1.00  0.00    -0.091 Cl
HETATM    4 CL   LIG     1      17.306  37.605  24.872  1.00  0.00    -0.091 Cl
ENDROOT
TORSDOF 0
ENDMDL
MODEL 18
REMARK VINA RESULT:      -2.7      2.927      3.581
REMARK  0 active torsions:
REMARK  status: ('A' for Active; 'I' for Inactive)
ROOT
HETATM    1 CL   LIG     1      15.512  37.796  22.880  1.00  0.00    -0.091 Cl
HETATM    2  C   LIG     1      17.190  37.706  23.465  1.00  0.00     0.273 C 
HETATM    3 CL   LIG     1      18.204  38.825  22.527  1.00  0.00    -0.091 Cl
HETATM    4 CL   LIG     1      17.243  38.156  25.184  1.00  0.00    -0.091 Cl
ENDROOT
TORSDOF 0
ENDMDL
MODEL 19
REMARK VINA RESULT:      -2.7      2.906      3.802
REMARK  0 active torsions:
REMARK  status: ('A' for Active; 'I' for Inactive)
ROOT
HETATM    1 CL   LIG     1      17.277  38.143  25.223  1.00  0.00    -0.091 Cl
HETATM    2  C   LIG     1      17.203  37.702  23.501  1.00  0.00     0.273 C 
HETATM    3 CL   LIG     1      15.523  37.824  22.931  1.00  0.00    -0.091 Cl
HETATM    4 CL   LIG     1      18.230  38.807  22.562  1.00  0.00    -0.091 Cl
ENDROOT
TORSDOF 0
ENDMDL
