REMARK  0 active torsions:
REMARK  status: ('A' for Active; 'I' for Inactive)
ROOT
HETATM    1 CL   LIG     1      -0.580   1.581  -0.431  1.00  0.00    -0.091 Cl
HETATM    2  C   LIG     1       0.005  -0.001   0.134  1.00  0.00     0.273 C 
HETATM    3 CL   LIG     1      -1.102  -1.275  -0.424  1.00  0.00    -0.091 Cl
HETATM    4 CL   LIG     1       1.631  -0.299  -0.520  1.00  0.00    -0.091 Cl
ENDROOT
TORSDOF 0
