MODEL 1
REMARK VINA RESULT:      -4.6      0.000      0.000
REMARK  1 active torsions:
REMARK  status: ('A' for Active; 'I' for Inactive)
REMARK    1  A    between atoms: C_2  and  C_5 
ROOT
HETATM    1 CL   LIG     1      17.156  35.185  23.244  1.00  0.00    -0.079 Cl
HETATM    2  C   LIG     1      16.771  36.475  22.067  1.00  0.00     0.237 C 
HETATM    3 CL   LIG     1      15.036  36.340  21.659  1.00  0.00    -0.079 Cl
HETATM    4 CL   LIG     1      17.709  36.153  20.581  1.00  0.00    -0.079 Cl
ENDROOT
BRANCH   2   5
HETATM    5  C   LIG     1      17.103  37.874  22.645  1.00  0.00     0.237 C 
HETATM    6 CL   LIG     1      15.683  38.956  22.570  1.00  0.00    -0.079 Cl
HETATM    7 CL   LIG     1      18.428  38.650  21.731  1.00  0.00    -0.079 Cl
HETATM    8 CL   LIG     1      17.613  37.762  24.355  1.00  0.00    -0.079 Cl
ENDBRANCH   2   5
TORSDOF 1
ENDMDL
MODEL 2
REMARK VINA RESULT:      -4.6      0.064      2.505
REMARK  1 active torsions:
REMARK  status: ('A' for Active; 'I' for Inactive)
REMARK    1  A    between atoms: C_2  and  C_5 
ROOT
HETATM    1 CL   LIG     1      14.978  36.373  21.691  1.00  0.00    -0.079 Cl
HETATM    2  C   LIG     1      16.725  36.476  22.058  1.00  0.00     0.237 C 
HETATM    3 CL   LIG     1      17.620  36.122  20.552  1.00  0.00    -0.079 Cl
HETATM    4 CL   LIG     1      17.110  35.190  23.237  1.00  0.00    -0.079 Cl
ENDROOT
BRANCH   2   5
HETATM    5  C   LIG     1      17.096  37.874  22.614  1.00  0.00     0.237 C 
HETATM    6 CL   LIG     1      17.657  37.766  24.307  1.00  0.00    -0.079 Cl
HETATM    7 CL   LIG     1      15.689  38.976  22.576  1.00  0.00    -0.079 Cl
HETATM    8 CL   LIG     1      18.403  38.625  21.652  1.00  0.00    -0.079 Cl
ENDBRANCH   2   5
TORSDOF 1
ENDMDL
MODEL 3
REMARK VINA RESULT:      -3.3      1.547      2.549
REMARK  1 active torsions:
REMARK  status: ('A' for Active; 'I' for Inactive)
REMARK    1  A    between atoms: C_2  and  C_5 
ROOT
HETATM    1 CL   LIG     1      17.000  35.310  23.248  1.00  0.00    -0.079 Cl
HETATM    2  C   LIG     1      17.060  37.097  23.249  1.00  0.00     0.237 C 
HETATM    3 CL   LIG     1      15.378  37.699  23.287  1.00  0.00    -0.079 Cl
HETATM    4 CL   LIG     1      17.792  37.618  21.704  1.00  0.00    -0.079 Cl
ENDROOT
BRANCH   2   5
HETATM    5  C   LIG     1      17.872  37.627  24.459  1.00  0.00     0.237 C 
HETATM    6 CL   LIG     1      19.343  38.487  23.921  1.00  0.00    -0.079 Cl
HETATM    7 CL   LIG     1      18.383  36.287  25.526  1.00  0.00    -0.079 Cl
HETATM    8 CL   LIG     1      16.901  38.764  25.438  1.00  0.00    -0.079 Cl
ENDBRANCH   2   5
TORSDOF 1
ENDMDL
MODEL 4
REMARK VINA RESULT:      -3.1     10.485     12.060
REMARK  1 active torsions:
REMARK  status: ('A' for Active; 'I' for Inactive)
REMARK    1  A    between atoms: C_2  and  C_5 
ROOT
HETATM    1 CL   LIG     1      19.193  34.025  13.308  1.00  0.00    -0.079 Cl
HETATM    2  C   LIG     1      19.508  33.887  11.554  1.00  0.00     0.237 C 
HETATM    3 CL   LIG     1      18.448  35.058  10.715  1.00  0.00    -0.079 Cl
HETATM    4 CL   LIG     1      19.022  32.246  11.041  1.00  0.00    -0.079 Cl
ENDROOT
BRANCH   2   5
HETATM    5  C   LIG     1      21.001  34.155  11.233  1.00  0.00     0.237 C 
HETATM    6 CL   LIG     1      21.186  35.573  10.162  1.00  0.00    -0.079 Cl
HETATM    7 CL   LIG     1      21.743  32.752  10.411  1.00  0.00    -0.079 Cl
HETATM    8 CL   LIG     1      21.935  34.471  12.724  1.00  0.00    -0.079 Cl
ENDBRANCH   2   5
TORSDOF 1
ENDMDL
MODEL 5
REMARK VINA RESULT:      -3.0     17.683     19.509
REMARK  1 active torsions:
REMARK  status: ('A' for Active; 'I' for Inactive)
REMARK    1  A    between atoms: C_2  and  C_5 
ROOT
HETATM    1 CL   LIG     1      19.097  22.930  35.031  1.00  0.00    -0.079 Cl
HETATM    2  C   LIG     1      20.255  22.673  33.694  1.00  0.00     0.237 C 
HETATM    3 CL   LIG     1      21.782  23.493  34.130  1.00  0.00    -0.079 Cl
HETATM    4 CL   LIG     1      19.597  23.480  32.241  1.00  0.00    -0.079 Cl
ENDROOT
BRANCH   2   5
HETATM    5  C   LIG     1      20.485  21.162  33.438  1.00  0.00     0.237 C 
HETATM    6 CL   LIG     1      22.222  20.749  33.531  1.00  0.00    -0.079 Cl
HETATM    7 CL   LIG     1      19.898  20.687  31.818  1.00  0.00    -0.079 Cl
HETATM    8 CL   LIG     1      19.622  20.164  34.645  1.00  0.00    -0.079 Cl
ENDBRANCH   2   5
TORSDOF 1
ENDMDL
MODEL 6
REMARK VINA RESULT:      -3.0     17.702     19.407
REMARK  1 active torsions:
REMARK  status: ('A' for Active; 'I' for Inactive)
REMARK    1  A    between atoms: C_2  and  C_5 
ROOT
HETATM    1 CL   LIG     1      19.900  20.679  31.831  1.00  0.00    -0.079 Cl
HETATM    2  C   LIG     1      20.484  21.151  33.454  1.00  0.00     0.237 C 
HETATM    3 CL   LIG     1      22.222  20.743  33.548  1.00  0.00    -0.079 Cl
HETATM    4 CL   LIG     1      19.622  20.148  34.655  1.00  0.00    -0.079 Cl
ENDROOT
BRANCH   2   5
HETATM    5  C   LIG     1      20.248  22.661  33.714  1.00  0.00     0.237 C 
HETATM    6 CL   LIG     1      19.126  22.912  35.081  1.00  0.00    -0.079 Cl
HETATM    7 CL   LIG     1      19.544  23.459  32.278  1.00  0.00    -0.079 Cl
HETATM    8 CL   LIG     1      21.781  23.494  34.105  1.00  0.00    -0.079 Cl
ENDBRANCH   2   5
TORSDOF 1
ENDMDL
MODEL 7
REMARK VINA RESULT:      -3.0     17.692     19.523
REMARK  1 active torsions:
REMARK  status: ('A' for Active; 'I' for Inactive)
REMARK    1  A    between atoms: C_2  and  C_5 
ROOT
HETATM    1 CL   LIG     1      21.756  23.494  34.097  1.00  0.00    -0.079 Cl
HETATM    2  C   LIG     1      20.232  22.651  33.693  1.00  0.00     0.237 C 
HETATM    3 CL   LIG     1      19.529  23.453  32.258  1.00  0.00    -0.079 Cl
HETATM    4 CL   LIG     1      19.102  22.887  35.058  1.00  0.00    -0.079 Cl
ENDROOT
BRANCH   2   5
HETATM    5  C   LIG     1      20.481  21.145  33.427  1.00  0.00     0.237 C 
HETATM    6 CL   LIG     1      19.607  20.128  34.609  1.00  0.00    -0.079 Cl
HETATM    7 CL   LIG     1      22.220  20.749  33.548  1.00  0.00    -0.079 Cl
HETATM    8 CL   LIG     1      19.927  20.679  31.792  1.00  0.00    -0.079 Cl
ENDBRANCH   2   5
TORSDOF 1
ENDMDL
MODEL 8
REMARK VINA RESULT:      -2.9     17.550     18.874
REMARK  1 active torsions:
REMARK  status: ('A' for Active; 'I' for Inactive)
REMARK    1  A    between atoms: C_2  and  C_5 
ROOT
HETATM    1 CL   LIG     1      26.111  29.864  37.811  1.00  0.00    -0.079 Cl
HETATM    2  C   LIG     1      26.789  31.231  36.880  1.00  0.00     0.237 C 
HETATM    3 CL   LIG     1      27.058  32.584  38.017  1.00  0.00    -0.079 Cl
HETATM    4 CL   LIG     1      25.553  31.750  35.698  1.00  0.00    -0.079 Cl
ENDROOT
BRANCH   2   5
HETATM    5  C   LIG     1      28.106  30.825  36.171  1.00  0.00     0.237 C 
HETATM    6 CL   LIG     1      29.492  31.760  36.802  1.00  0.00    -0.079 Cl
HETATM    7 CL   LIG     1      28.006  31.120  34.411  1.00  0.00    -0.079 Cl
HETATM    8 CL   LIG     1      28.461  29.090  36.415  1.00  0.00    -0.079 Cl
ENDBRANCH   2   5
TORSDOF 1
ENDMDL
MODEL 9
REMARK VINA RESULT:      -2.9     17.509     18.864
REMARK  1 active torsions:
REMARK  status: ('A' for Active; 'I' for Inactive)
REMARK    1  A    between atoms: C_2  and  C_5 
ROOT
HETATM    1 CL   LIG     1      25.549  31.725  35.679  1.00  0.00    -0.079 Cl
HETATM    2  C   LIG     1      26.812  31.152  36.806  1.00  0.00     0.237 C 
HETATM    3 CL   LIG     1      26.163  29.732  37.677  1.00  0.00    -0.079 Cl
HETATM    4 CL   LIG     1      27.098  32.445  38.007  1.00  0.00    -0.079 Cl
ENDROOT
BRANCH   2   5
HETATM    5  C   LIG     1      28.116  30.795  36.048  1.00  0.00     0.237 C 
HETATM    6 CL   LIG     1      29.503  31.734  36.673  1.00  0.00    -0.079 Cl
HETATM    7 CL   LIG     1      27.962  31.148  34.302  1.00  0.00    -0.079 Cl
HETATM    8 CL   LIG     1      28.509  29.060  36.221  1.00  0.00    -0.079 Cl
ENDBRANCH   2   5
TORSDOF 1
ENDMDL
MODEL 10
REMARK VINA RESULT:      -2.9     17.547     18.873
REMARK  1 active torsions:
REMARK  status: ('A' for Active; 'I' for Inactive)
REMARK    1  A    between atoms: C_2  and  C_5 
ROOT
HETATM    1 CL   LIG     1      27.072  32.498  38.009  1.00  0.00    -0.079 Cl
HETATM    2  C   LIG     1      26.820  31.166  36.843  1.00  0.00     0.237 C 
HETATM    3 CL   LIG     1      25.555  31.683  35.690  1.00  0.00    -0.079 Cl
HETATM    4 CL   LIG     1      26.190  29.760  37.750  1.00  0.00    -0.079 Cl
ENDROOT
BRANCH   2   5
HETATM    5  C   LIG     1      28.137  30.812  36.107  1.00  0.00     0.237 C 
HETATM    6 CL   LIG     1      28.001  31.129  34.354  1.00  0.00    -0.079 Cl
HETATM    7 CL   LIG     1      28.548  29.085  36.319  1.00  0.00    -0.079 Cl
HETATM    8 CL   LIG     1      29.505  31.779  36.733  1.00  0.00    -0.079 Cl
ENDBRANCH   2   5
TORSDOF 1
ENDMDL
MODEL 11
REMARK VINA RESULT:      -2.9     17.520     18.844
REMARK  1 active torsions:
REMARK  status: ('A' for Active; 'I' for Inactive)
REMARK    1  A    between atoms: C_2  and  C_5 
ROOT
HETATM    1 CL   LIG     1      27.885  31.175  34.481  1.00  0.00    -0.079 Cl
HETATM    2  C   LIG     1      27.981  30.850  36.236  1.00  0.00     0.237 C 
HETATM    3 CL   LIG     1      29.365  31.777  36.887  1.00  0.00    -0.079 Cl
HETATM    4 CL   LIG     1      28.338  29.113  36.450  1.00  0.00    -0.079 Cl
ENDROOT
BRANCH   2   5
HETATM    5  C   LIG     1      26.662  31.242  36.949  1.00  0.00     0.237 C 
HETATM    6 CL   LIG     1      25.439  31.808  35.775  1.00  0.00    -0.079 Cl
HETATM    7 CL   LIG     1      26.933  32.557  38.129  1.00  0.00    -0.079 Cl
HETATM    8 CL   LIG     1      25.968  29.851  37.832  1.00  0.00    -0.079 Cl
ENDBRANCH   2   5
TORSDOF 1
ENDMDL
MODEL 12
REMARK VINA RESULT:      -2.9     15.667     17.126
REMARK  1 active torsions:
REMARK  status: ('A' for Active; 'I' for Inactive)
REMARK    1  A    between atoms: C_2  and  C_5 
ROOT
HETATM    1 CL   LIG     1      25.332  21.132  19.949  1.00  0.00    -0.079 Cl
HETATM    2  C   LIG     1      23.560  21.119  20.183  1.00  0.00     0.237 C 
HETATM    3 CL   LIG     1      23.022  19.415  20.181  1.00  0.00    -0.079 Cl
HETATM    4 CL   LIG     1      22.819  21.928  18.772  1.00  0.00    -0.079 Cl
ENDROOT
BRANCH   2   5
HETATM    5  C   LIG     1      23.167  21.829  21.504  1.00  0.00     0.237 C 
HETATM    6 CL   LIG     1      21.792  22.943  21.253  1.00  0.00    -0.079 Cl
HETATM    7 CL   LIG     1      24.532  22.784  22.152  1.00  0.00    -0.079 Cl
HETATM    8 CL   LIG     1      22.688  20.644  22.755  1.00  0.00    -0.079 Cl
ENDBRANCH   2   5
TORSDOF 1
ENDMDL
MODEL 13
REMARK VINA RESULT:      -2.9     15.535     16.977
REMARK  1 active torsions:
REMARK  status: ('A' for Active; 'I' for Inactive)
REMARK    1  A    between atoms: C_2  and  C_5 
ROOT
HETATM    1 CL   LIG     1      22.811  20.402  22.133  1.00  0.00    -0.079 Cl
HETATM    2  C   LIG     1      23.282  21.999  21.480  1.00  0.00     0.237 C 
HETATM    3 CL   LIG     1      24.320  22.800  22.695  1.00  0.00    -0.079 Cl
HETATM    4 CL   LIG     1      21.796  22.975  21.302  1.00  0.00    -0.079 Cl
ENDROOT
BRANCH   2   5
HETATM    5  C   LIG     1      24.020  21.851  20.125  1.00  0.00     0.237 C 
HETATM    6 CL   LIG     1      22.868  21.871  18.759  1.00  0.00    -0.079 Cl
HETATM    7 CL   LIG     1      24.926  20.312  20.050  1.00  0.00    -0.079 Cl
HETATM    8 CL   LIG     1      25.185  23.184  19.876  1.00  0.00    -0.079 Cl
ENDBRANCH   2   5
TORSDOF 1
ENDMDL
MODEL 14
REMARK VINA RESULT:      -2.9     15.528     16.996
REMARK  1 active torsions:
REMARK  status: ('A' for Active; 'I' for Inactive)
REMARK    1  A    between atoms: C_2  and  C_5 
ROOT
HETATM    1 CL   LIG     1      24.283  22.803  22.751  1.00  0.00    -0.079 Cl
HETATM    2  C   LIG     1      23.255  21.989  21.536  1.00  0.00     0.237 C 
HETATM    3 CL   LIG     1      21.780  22.976  21.321  1.00  0.00    -0.079 Cl
HETATM    4 CL   LIG     1      22.761  20.409  22.211  1.00  0.00    -0.079 Cl
ENDROOT
BRANCH   2   5
HETATM    5  C   LIG     1      24.010  21.812  20.194  1.00  0.00     0.237 C 
HETATM    6 CL   LIG     1      24.898  20.262  20.154  1.00  0.00    -0.079 Cl
HETATM    7 CL   LIG     1      25.195  23.127  19.945  1.00  0.00    -0.079 Cl
HETATM    8 CL   LIG     1      22.878  21.829  18.810  1.00  0.00    -0.079 Cl
ENDBRANCH   2   5
TORSDOF 1
ENDMDL
MODEL 15
REMARK VINA RESULT:      -2.9     18.715     20.213
REMARK  1 active torsions:
REMARK  status: ('A' for Active; 'I' for Inactive)
REMARK    1  A    between atoms: C_2  and  C_5 
ROOT
HETATM    1 CL   LIG     1      21.928  21.661  36.878  1.00  0.00    -0.079 Cl
HETATM    2  C   LIG     1      21.317  22.706  35.562  1.00  0.00     0.237 C 
HETATM    3 CL   LIG     1      22.702  23.631  34.913  1.00  0.00    -0.079 Cl
HETATM    4 CL   LIG     1      20.170  23.872  36.282  1.00  0.00    -0.079 Cl
ENDROOT
BRANCH   2   5
HETATM    5  C   LIG     1      20.637  21.865  34.453  1.00  0.00     0.237 C 
HETATM    6 CL   LIG     1      21.833  20.871  33.572  1.00  0.00    -0.079 Cl
HETATM    7 CL   LIG     1      19.818  22.915  33.260  1.00  0.00    -0.079 Cl
HETATM    8 CL   LIG     1      19.411  20.760  35.140  1.00  0.00    -0.079 Cl
ENDBRANCH   2   5
TORSDOF 1
ENDMDL
MODEL 16
REMARK VINA RESULT:      -2.9     15.649     17.306
REMARK  1 active torsions:
REMARK  status: ('A' for Active; 'I' for Inactive)
REMARK    1  A    between atoms: C_2  and  C_5 
ROOT
HETATM    1 CL   LIG     1      22.794  20.755  22.817  1.00  0.00    -0.079 Cl
HETATM    2  C   LIG     1      23.229  21.893  21.508  1.00  0.00     0.237 C 
HETATM    3 CL   LIG     1      24.605  22.881  22.080  1.00  0.00    -0.079 Cl
HETATM    4 CL   LIG     1      21.840  22.987  21.253  1.00  0.00    -0.079 Cl
ENDROOT
BRANCH   2   5
HETATM    5  C   LIG     1      23.590  21.133  20.206  1.00  0.00     0.237 C 
HETATM    6 CL   LIG     1      25.355  21.126  19.931  1.00  0.00    -0.079 Cl
HETATM    7 CL   LIG     1      22.820  21.894  18.783  1.00  0.00    -0.079 Cl
HETATM    8 CL   LIG     1      23.041  19.433  20.278  1.00  0.00    -0.079 Cl
ENDBRANCH   2   5
TORSDOF 1
ENDMDL
MODEL 17
REMARK VINA RESULT:      -2.9     15.503     16.863
REMARK  1 active torsions:
REMARK  status: ('A' for Active; 'I' for Inactive)
REMARK    1  A    between atoms: C_2  and  C_5 
ROOT
HETATM    1 CL   LIG     1      25.037  20.393  20.185  1.00  0.00    -0.079 Cl
HETATM    2  C   LIG     1      24.071  21.895  20.239  1.00  0.00     0.237 C 
HETATM    3 CL   LIG     1      22.941  21.868  18.854  1.00  0.00    -0.079 Cl
HETATM    4 CL   LIG     1      25.188  23.270  20.005  1.00  0.00    -0.079 Cl
ENDROOT
BRANCH   2   5
HETATM    5  C   LIG     1      23.306  22.019  21.582  1.00  0.00     0.237 C 
HETATM    6 CL   LIG     1      22.795  20.415  22.183  1.00  0.00    -0.079 Cl
HETATM    7 CL   LIG     1      21.839  23.024  21.396  1.00  0.00    -0.079 Cl
HETATM    8 CL   LIG     1      24.328  22.773  22.839  1.00  0.00    -0.079 Cl
ENDBRANCH   2   5
TORSDOF 1
ENDMDL
MODEL 18
REMARK VINA RESULT:      -2.9     15.774     17.253
REMARK  1 active torsions:
REMARK  status: ('A' for Active; 'I' for Inactive)
REMARK    1  A    between atoms: C_2  and  C_5 
ROOT
HETATM    1 CL   LIG     1      25.294  20.429  21.318  1.00  0.00    -0.079 Cl
HETATM    2  C   LIG     1      23.546  20.705  21.069  1.00  0.00     0.237 C 
HETATM    3 CL   LIG     1      22.743  20.592  22.662  1.00  0.00    -0.079 Cl
HETATM    4 CL   LIG     1      22.924  19.376  20.049  1.00  0.00    -0.079 Cl
ENDROOT
BRANCH   2   5
HETATM    5  C   LIG     1      23.288  22.084  20.409  1.00  0.00     0.237 C 
HETATM    6 CL   LIG     1      22.856  21.902  18.684  1.00  0.00    -0.079 Cl
HETATM    7 CL   LIG     1      24.740  23.122  20.500  1.00  0.00    -0.079 Cl
HETATM    8 CL   LIG     1      21.948  22.946  21.220  1.00  0.00    -0.079 Cl
ENDBRANCH   2   5
TORSDOF 1
ENDMDL
MODEL 19
REMARK VINA RESULT:      -2.9     18.756     20.280
REMARK  1 active torsions:
REMARK  status: ('A' for Active; 'I' for Inactive)
REMARK    1  A    between atoms: C_2  and  C_5 
ROOT
HETATM    1 CL   LIG     1      22.319  21.372  36.852  1.00  0.00    -0.079 Cl
HETATM    2  C   LIG     1      21.998  22.170  35.285  1.00  0.00     0.237 C 
HETATM    3 CL   LIG     1      22.512  21.053  33.988  1.00  0.00    -0.079 Cl
HETATM    4 CL   LIG     1      23.032  23.625  35.194  1.00  0.00    -0.079 Cl
ENDROOT
BRANCH   2   5
HETATM    5  C   LIG     1      20.500  22.540  35.144  1.00  0.00     0.237 C 
HETATM    6 CL   LIG     1      20.069  23.905  36.214  1.00  0.00    -0.079 Cl
HETATM    7 CL   LIG     1      19.453  21.157  35.578  1.00  0.00    -0.079 Cl
HETATM    8 CL   LIG     1      20.108  23.016  33.466  1.00  0.00    -0.079 Cl
ENDBRANCH   2   5
TORSDOF 1
ENDMDL
MODEL 20
REMARK VINA RESULT:      -2.8     17.193     18.453
REMARK  1 active torsions:
REMARK  status: ('A' for Active; 'I' for Inactive)
REMARK    1  A    between atoms: C_2  and  C_5 
ROOT
HETATM    1 CL   LIG     1      27.918  31.442  33.749  1.00  0.00    -0.079 Cl
HETATM    2  C   LIG     1      27.410  30.810  35.343  1.00  0.00     0.237 C 
HETATM    3 CL   LIG     1      25.752  31.400  35.660  1.00  0.00    -0.079 Cl
HETATM    4 CL   LIG     1      28.487  31.520  36.579  1.00  0.00    -0.079 Cl
ENDROOT
BRANCH   2   5
HETATM    5  C   LIG     1      27.468  29.262  35.372  1.00  0.00     0.237 C 
HETATM    6 CL   LIG     1      26.881  28.624  36.936  1.00  0.00    -0.079 Cl
HETATM    7 CL   LIG     1      29.141  28.676  35.139  1.00  0.00    -0.079 Cl
HETATM    8 CL   LIG     1      26.456  28.553  34.080  1.00  0.00    -0.079 Cl
ENDBRANCH   2   5
TORSDOF 1
ENDMDL
