MODEL 1
REMARK VINA RESULT:      -4.8      0.000      0.000
REMARK  8 active torsions:
REMARK  status: ('A' for Active; 'I' for Inactive)
REMARK    1  A    between atoms: C_13  and  O_14 
REMARK    2  A    between atoms: C_20  and  O_21 
REMARK    3  A    between atoms: O_21  and  C_22 
REMARK    4  A    between atoms: C_25  and  C_27 
REMARK    5  A    between atoms: C_25  and  O_26 
REMARK    6  A    between atoms: C_27  and  C_28 
REMARK    7  A    between atoms: C_28  and  O_29 
REMARK    8  A    between atoms: O_29  and  C_30 
ROOT
HETATM    1  O   LIG     1      27.715  27.200  18.708  1.00  0.00    -0.289 OA
HETATM    2  C   LIG     1      27.506  26.102  19.287  1.00  0.00     0.172 C 
HETATM    3  C   LIG     1      28.045  25.850  20.631  1.00  0.00     0.052 C 
HETATM    4  C   LIG     1      27.963  24.620  21.154  1.00  0.00    -0.006 C 
HETATM    5  C   LIG     1      27.596  23.419  20.274  1.00  0.00     0.036 C 
HETATM    6  C   LIG     1      28.857  23.003  19.474  1.00  0.00     0.028 C 
HETATM    7  C   LIG     1      26.519  23.881  19.257  1.00  0.00    -0.061 C 
HETATM    8  C   LIG     1      25.306  23.010  18.965  1.00  0.00     0.036 C 
HETATM    9  C   LIG     1      24.629  22.472  20.261  1.00  0.00     0.013 C 
HETATM   10  C   LIG     1      25.555  22.567  21.500  1.00  0.00     0.035 C 
HETATM   11  C   LIG     1      27.029  22.186  21.095  1.00  0.00     0.147 C 
HETATM   12  F   LIG     1      26.950  21.154  20.163  1.00  0.00    -0.238 F 
HETATM   13  C   LIG     1      27.943  21.576  22.250  1.00  0.00     0.160 C 
HETATM   14  C   LIG     1      27.224  21.174  23.567  1.00  0.00     0.048 C 
HETATM   15  C   LIG     1      25.752  20.733  23.370  1.00  0.00     0.004 C 
HETATM   16  C   LIG     1      25.670  19.479  22.437  1.00  0.00     0.019 C 
HETATM   17  C   LIG     1      25.007  21.942  22.818  1.00  0.00     0.007 C 
HETATM   18  C   LIG     1      23.531  21.600  22.960  1.00  0.00     0.042 C 
HETATM   19  C   LIG     1      23.452  20.768  24.263  1.00  0.00     0.175 C 
HETATM   20  C   LIG     1      24.934  20.433  24.680  1.00  0.00     0.154 C 
HETATM   21  C   LIG     1      26.607  25.101  18.697  1.00  0.00     0.058 C 
ENDROOT
BRANCH  20  22
HETATM   22  C   LIG     1      25.390  21.298  25.869  1.00  0.00     0.188 C 
HETATM   23  O   LIG     1      26.399  21.006  26.496  1.00  0.00    -0.292 OA
BRANCH  22  24
HETATM   24  C   LIG     1      24.593  22.500  26.314  1.00  0.00     0.260 C 
BRANCH  24  25
HETATM   25  O   LIG     1      25.026  23.669  25.620  1.00  0.00    -0.314 OA
BRANCH  25  26
HETATM   26  C   LIG     1      26.187  24.377  25.949  1.00  0.00     0.255 C 
HETATM   27  C   LIG     1      27.266  24.520  24.929  1.00  0.00     0.126 C 
HETATM   28  O   LIG     1      26.314  24.924  27.078  1.00  0.00    -0.266 OA
ENDBRANCH  25  26
ENDBRANCH  24  25
ENDBRANCH  22  24
ENDBRANCH  20  22
BRANCH  20  29
HETATM   29  O   LIG     1      25.053  19.073  25.040  1.00  0.00    -0.378 OA
HETATM   30  H   LIG     1      25.733  18.663  24.444  1.00  0.00     0.211 HD
ENDBRANCH  20  29
BRANCH  19  31
HETATM   31  O   LIG     1      22.703  19.569  24.039  1.00  0.00    -0.313 OA
BRANCH  31  32
HETATM   32  C   LIG     1      21.890  18.976  25.011  1.00  0.00     0.255 C 
HETATM   33  C   LIG     1      20.695  18.193  24.586  1.00  0.00     0.126 C 
HETATM   34  O   LIG     1      22.130  19.133  26.239  1.00  0.00    -0.266 OA
ENDBRANCH  31  32
ENDBRANCH  19  31
BRANCH  13  35
HETATM   35  O   LIG     1      29.042  22.394  22.555  1.00  0.00    -0.392 OA
HETATM   36  H   LIG     1      28.685  23.265  22.875  1.00  0.00     0.210 HD
ENDBRANCH  13  35
TORSDOF 8
ENDMDL
MODEL 2
REMARK VINA RESULT:      -4.8      2.788      7.357
REMARK  8 active torsions:
REMARK  status: ('A' for Active; 'I' for Inactive)
REMARK    1  A    between atoms: C_13  and  O_14 
REMARK    2  A    between atoms: C_20  and  O_21 
REMARK    3  A    between atoms: O_21  and  C_22 
REMARK    4  A    between atoms: C_25  and  C_27 
REMARK    5  A    between atoms: C_25  and  O_26 
REMARK    6  A    between atoms: C_27  and  C_28 
REMARK    7  A    between atoms: C_28  and  O_29 
REMARK    8  A    between atoms: O_29  and  C_30 
ROOT
HETATM    1  O   LIG     1      26.185  24.482  28.335  1.00  0.00    -0.289 OA
HETATM    2  C   LIG     1      26.700  24.273  27.205  1.00  0.00     0.172 C 
HETATM    3  C   LIG     1      26.174  23.218  26.327  1.00  0.00     0.052 C 
HETATM    4  C   LIG     1      26.842  22.897  25.212  1.00  0.00    -0.006 C 
HETATM    5  C   LIG     1      28.278  23.388  24.991  1.00  0.00     0.036 C 
HETATM    6  C   LIG     1      29.229  22.494  25.827  1.00  0.00     0.028 C 
HETATM    7  C   LIG     1      28.380  24.835  25.541  1.00  0.00    -0.061 C 
HETATM    8  C   LIG     1      29.107  25.914  24.752  1.00  0.00     0.036 C 
HETATM    9  C   LIG     1      28.697  25.936  23.250  1.00  0.00     0.013 C 
HETATM   10  C   LIG     1      28.001  24.625  22.803  1.00  0.00     0.035 C 
HETATM   11  C   LIG     1      28.717  23.388  23.467  1.00  0.00     0.147 C 
HETATM   12  F   LIG     1      30.081  23.665  23.497  1.00  0.00    -0.238 F 
HETATM   13  C   LIG     1      28.633  22.013  22.666  1.00  0.00     0.160 C 
HETATM   14  C   LIG     1      28.097  22.085  21.209  1.00  0.00     0.048 C 
HETATM   15  C   LIG     1      28.394  23.428  20.498  1.00  0.00     0.004 C 
HETATM   16  C   LIG     1      29.936  23.675  20.399  1.00  0.00     0.019 C 
HETATM   17  C   LIG     1      27.663  24.508  21.287  1.00  0.00     0.007 C 
HETATM   18  C   LIG     1      27.681  25.738  20.390  1.00  0.00     0.042 C 
HETATM   19  C   LIG     1      27.571  25.169  18.954  1.00  0.00     0.175 C 
HETATM   20  C   LIG     1      27.768  23.610  19.066  1.00  0.00     0.154 C 
HETATM   21  C   LIG     1      27.743  25.165  26.679  1.00  0.00     0.058 C 
ENDROOT
BRANCH  20  22
HETATM   22  C   LIG     1      26.430  22.865  18.910  1.00  0.00     0.188 C 
HETATM   23  O   LIG     1      26.398  21.746  18.416  1.00  0.00    -0.292 OA
BRANCH  22  24
HETATM   24  C   LIG     1      25.126  23.502  19.324  1.00  0.00     0.260 C 
BRANCH  24  25
HETATM   25  O   LIG     1      24.264  22.532  19.916  1.00  0.00    -0.314 OA
BRANCH  25  26
HETATM   26  C   LIG     1      23.649  22.703  21.161  1.00  0.00     0.255 C 
HETATM   27  C   LIG     1      24.496  22.806  22.384  1.00  0.00     0.126 C 
HETATM   28  O   LIG     1      22.395  22.808  21.255  1.00  0.00    -0.266 OA
ENDBRANCH  25  26
ENDBRANCH  24  25
ENDBRANCH  22  24
ENDBRANCH  20  22
BRANCH  20  29
HETATM   29  O   LIG     1      28.659  23.150  18.072  1.00  0.00    -0.378 OA
HETATM   30  H   LIG     1      28.142  22.575  17.448  1.00  0.00     0.211 HD
ENDBRANCH  20  29
BRANCH  19  31
HETATM   31  O   LIG     1      28.575  25.750  18.115  1.00  0.00    -0.313 OA
BRANCH  31  32
HETATM   32  C   LIG     1      29.131  27.013  18.341  1.00  0.00     0.255 C 
HETATM   33  C   LIG     1      30.552  27.119  18.781  1.00  0.00     0.126 C 
HETATM   34  O   LIG     1      28.435  28.057  18.220  1.00  0.00    -0.266 OA
ENDBRANCH  31  32
ENDBRANCH  19  31
BRANCH  13  35
HETATM   35  O   LIG     1      27.928  21.024  23.369  1.00  0.00    -0.392 OA
HETATM   36  H   LIG     1      27.524  20.412  22.697  1.00  0.00     0.210 HD
ENDBRANCH  13  35
TORSDOF 8
ENDMDL
MODEL 3
REMARK VINA RESULT:      -4.7      7.294     11.800
REMARK  8 active torsions:
REMARK  status: ('A' for Active; 'I' for Inactive)
REMARK    1  A    between atoms: C_13  and  O_14 
REMARK    2  A    between atoms: C_20  and  O_21 
REMARK    3  A    between atoms: O_21  and  C_22 
REMARK    4  A    between atoms: C_25  and  C_27 
REMARK    5  A    between atoms: C_25  and  O_26 
REMARK    6  A    between atoms: C_27  and  C_28 
REMARK    7  A    between atoms: C_28  and  O_29 
REMARK    8  A    between atoms: O_29  and  C_30 
ROOT
HETATM    1  O   LIG     1      25.947  31.444  35.845  1.00  0.00    -0.289 OA
HETATM    2  C   LIG     1      26.574  30.624  35.124  1.00  0.00     0.172 C 
HETATM    3  C   LIG     1      25.926  29.390  34.657  1.00  0.00     0.052 C 
HETATM    4  C   LIG     1      26.660  28.453  34.044  1.00  0.00    -0.006 C 
HETATM    5  C   LIG     1      28.192  28.506  34.087  1.00  0.00     0.036 C 
HETATM    6  C   LIG     1      28.654  27.976  35.468  1.00  0.00     0.028 C 
HETATM    7  C   LIG     1      28.623  29.993  33.980  1.00  0.00    -0.061 C 
HETATM    8  C   LIG     1      29.776  30.400  33.075  1.00  0.00     0.036 C 
HETATM    9  C   LIG     1      29.678  29.763  31.657  1.00  0.00     0.013 C 
HETATM   10  C   LIG     1      28.713  28.551  31.614  1.00  0.00     0.035 C 
HETATM   11  C   LIG     1      28.884  27.686  32.919  1.00  0.00     0.147 C 
HETATM   12  F   LIG     1      30.238  27.691  33.246  1.00  0.00    -0.238 F 
HETATM   13  C   LIG     1      28.537  26.136  32.789  1.00  0.00     0.160 C 
HETATM   14  C   LIG     1      28.328  25.588  31.350  1.00  0.00     0.048 C 
HETATM   15  C   LIG     1      29.145  26.337  30.268  1.00  0.00     0.004 C 
HETATM   16  C   LIG     1      30.679  26.221  30.551  1.00  0.00     0.019 C 
HETATM   17  C   LIG     1      28.642  27.776  30.264  1.00  0.00     0.007 C 
HETATM   18  C   LIG     1      29.198  28.389  28.986  1.00  0.00     0.042 C 
HETATM   19  C   LIG     1      29.190  27.225  27.966  1.00  0.00     0.175 C 
HETATM   20  C   LIG     1      28.880  25.910  28.777  1.00  0.00     0.154 C 
HETATM   21  C   LIG     1      27.917  30.942  34.619  1.00  0.00     0.058 C 
ENDROOT
BRANCH  20  22
HETATM   22  C   LIG     1      27.432  25.439  28.548  1.00  0.00     0.188 C 
HETATM   23  O   LIG     1      26.500  26.221  28.671  1.00  0.00    -0.292 OA
BRANCH  22  24
HETATM   24  C   LIG     1      27.122  24.003  28.205  1.00  0.00     0.260 C 
BRANCH  24  25
HETATM   25  O   LIG     1      25.877  23.914  27.515  1.00  0.00    -0.314 OA
BRANCH  25  26
HETATM   26  C   LIG     1      25.765  23.905  26.120  1.00  0.00     0.255 C 
HETATM   27  C   LIG     1      26.828  24.554  25.300  1.00  0.00     0.126 C 
HETATM   28  O   LIG     1      24.800  23.325  25.552  1.00  0.00    -0.266 OA
ENDBRANCH  25  26
ENDBRANCH  24  25
ENDBRANCH  22  24
ENDBRANCH  20  22
BRANCH  20  29
HETATM   29  O   LIG     1      29.758  24.873  28.393  1.00  0.00    -0.378 OA
HETATM   30  H   LIG     1      30.313  25.212  27.643  1.00  0.00     0.211 HD
ENDBRANCH  20  29
BRANCH  19  31
HETATM   31  O   LIG     1      30.459  27.132  27.312  1.00  0.00    -0.313 OA
BRANCH  31  32
HETATM   32  C   LIG     1      30.604  26.901  25.940  1.00  0.00     0.255 C 
HETATM   33  C   LIG     1      30.679  28.061  25.006  1.00  0.00     0.126 C 
HETATM   34  O   LIG     1      30.626  25.726  25.481  1.00  0.00    -0.266 OA
ENDBRANCH  31  32
ENDBRANCH  19  31
BRANCH  13  35
HETATM   35  O   LIG     1      27.448  25.760  33.589  1.00  0.00    -0.392 OA
HETATM   36  H   LIG     1      26.729  25.439  32.982  1.00  0.00     0.210 HD
ENDBRANCH  13  35
TORSDOF 8
ENDMDL
MODEL 4
REMARK VINA RESULT:      -4.6      2.375      7.350
REMARK  8 active torsions:
REMARK  status: ('A' for Active; 'I' for Inactive)
REMARK    1  A    between atoms: C_13  and  O_14 
REMARK    2  A    between atoms: C_20  and  O_21 
REMARK    3  A    between atoms: O_21  and  C_22 
REMARK    4  A    between atoms: C_25  and  C_27 
REMARK    5  A    between atoms: C_25  and  O_26 
REMARK    6  A    between atoms: C_27  and  C_28 
REMARK    7  A    between atoms: C_28  and  O_29 
REMARK    8  A    between atoms: O_29  and  C_30 
ROOT
HETATM    1  O   LIG     1      22.386  21.336  27.279  1.00  0.00    -0.289 OA
HETATM    2  C   LIG     1      23.241  21.321  26.356  1.00  0.00     0.172 C 
HETATM    3  C   LIG     1      23.000  20.554  25.125  1.00  0.00     0.052 C 
HETATM    4  C   LIG     1      23.991  20.408  24.236  1.00  0.00    -0.006 C 
HETATM    5  C   LIG     1      25.436  20.760  24.610  1.00  0.00     0.036 C 
HETATM    6  C   LIG     1      26.013  19.598  25.457  1.00  0.00     0.028 C 
HETATM    7  C   LIG     1      25.404  22.029  25.503  1.00  0.00    -0.061 C 
HETATM    8  C   LIG     1      26.397  23.160  25.276  1.00  0.00     0.036 C 
HETATM    9  C   LIG     1      26.517  23.559  23.775  1.00  0.00     0.013 C 
HETATM   10  C   LIG     1      25.960  22.470  22.823  1.00  0.00     0.035 C 
HETATM   11  C   LIG     1      26.361  21.042  23.353  1.00  0.00     0.147 C 
HETATM   12  F   LIG     1      27.646  21.141  23.881  1.00  0.00    -0.238 F 
HETATM   13  C   LIG     1      26.497  19.895  22.255  1.00  0.00     0.160 C 
HETATM   14  C   LIG     1      26.485  20.349  20.768  1.00  0.00     0.048 C 
HETATM   15  C   LIG     1      27.057  21.769  20.542  1.00  0.00     0.004 C 
HETATM   16  C   LIG     1      28.551  21.846  21.000  1.00  0.00     0.019 C 
HETATM   17  C   LIG     1      26.147  22.730  21.298  1.00  0.00     0.007 C 
HETATM   18  C   LIG     1      26.515  24.115  20.785  1.00  0.00     0.042 C 
HETATM   19  C   LIG     1      26.872  23.891  19.296  1.00  0.00     0.175 C 
HETATM   20  C   LIG     1      26.957  22.334  19.076  1.00  0.00     0.154 C 
HETATM   21  C   LIG     1      24.435  22.175  26.424  1.00  0.00     0.058 C 
ENDROOT
BRANCH  20  22
HETATM   22  C   LIG     1      25.721  21.806  18.326  1.00  0.00     0.188 C 
HETATM   23  O   LIG     1      25.810  20.828  17.595  1.00  0.00    -0.292 OA
BRANCH  22  24
HETATM   24  C   LIG     1      24.384  22.495  18.439  1.00  0.00     0.260 C 
BRANCH  24  25
HETATM   25  O   LIG     1      23.383  21.572  18.865  1.00  0.00    -0.314 OA
BRANCH  25  26
HETATM   26  C   LIG     1      23.065  21.341  20.208  1.00  0.00     0.255 C 
HETATM   27  C   LIG     1      22.522  22.460  21.030  1.00  0.00     0.126 C 
HETATM   28  O   LIG     1      23.197  20.194  20.716  1.00  0.00    -0.266 OA
ENDBRANCH  25  26
ENDBRANCH  24  25
ENDBRANCH  22  24
ENDBRANCH  20  22
BRANCH  20  29
HETATM   29  O   LIG     1      28.112  22.000  18.335  1.00  0.00    -0.378 OA
HETATM   30  H   LIG     1      28.091  21.020  18.173  1.00  0.00     0.211 HD
ENDBRANCH  20  29
BRANCH  19  31
HETATM   31  O   LIG     1      28.122  24.518  18.988  1.00  0.00    -0.313 OA
BRANCH  31  32
HETATM   32  C   LIG     1      28.365  25.206  17.795  1.00  0.00     0.255 C 
HETATM   33  C   LIG     1      28.901  26.597  17.849  1.00  0.00     0.126 C 
HETATM   34  O   LIG     1      28.097  24.682  16.680  1.00  0.00    -0.266 OA
ENDBRANCH  31  32
ENDBRANCH  19  31
BRANCH  13  35
HETATM   35  O   LIG     1      25.558  18.868  22.431  1.00  0.00    -0.392 OA
HETATM   36  H   LIG     1      25.642  18.251  21.656  1.00  0.00     0.210 HD
ENDBRANCH  13  35
TORSDOF 8
ENDMDL
MODEL 5
REMARK VINA RESULT:      -4.6      3.367      6.891
REMARK  8 active torsions:
REMARK  status: ('A' for Active; 'I' for Inactive)
REMARK    1  A    between atoms: C_13  and  O_14 
REMARK    2  A    between atoms: C_20  and  O_21 
REMARK    3  A    between atoms: O_21  and  C_22 
REMARK    4  A    between atoms: C_25  and  C_27 
REMARK    5  A    between atoms: C_25  and  O_26 
REMARK    6  A    between atoms: C_27  and  C_28 
REMARK    7  A    between atoms: C_28  and  O_29 
REMARK    8  A    between atoms: O_29  and  C_30 
ROOT
HETATM    1  O   LIG     1      26.110  18.257  27.323  1.00  0.00    -0.289 OA
HETATM    2  C   LIG     1      25.633  18.875  26.335  1.00  0.00     0.172 C 
HETATM    3  C   LIG     1      26.456  19.833  25.583  1.00  0.00     0.052 C 
HETATM    4  C   LIG     1      25.881  20.605  24.652  1.00  0.00    -0.006 C 
HETATM    5  C   LIG     1      24.355  20.724  24.566  1.00  0.00     0.036 C 
HETATM    6  C   LIG     1      23.883  21.696  25.677  1.00  0.00     0.028 C 
HETATM    7  C   LIG     1      23.749  19.328  24.869  1.00  0.00    -0.061 C 
HETATM    8  C   LIG     1      22.608  18.780  24.022  1.00  0.00     0.036 C 
HETATM    9  C   LIG     1      22.867  18.937  22.495  1.00  0.00     0.013 C 
HETATM   10  C   LIG     1      23.977  19.973  22.182  1.00  0.00     0.035 C 
HETATM   11  C   LIG     1      23.839  21.210  23.148  1.00  0.00     0.147 C 
HETATM   12  F   LIG     1      22.478  21.443  23.333  1.00  0.00    -0.238 F 
HETATM   13  C   LIG     1      24.383  22.601  22.593  1.00  0.00     0.160 C 
HETATM   14  C   LIG     1      24.743  22.656  21.082  1.00  0.00     0.048 C 
HETATM   15  C   LIG     1      23.904  21.697  20.202  1.00  0.00     0.004 C 
HETATM   16  C   LIG     1      22.382  22.050  20.293  1.00  0.00     0.019 C 
HETATM   17  C   LIG     1      24.222  20.284  20.675  1.00  0.00     0.007 C 
HETATM   18  C   LIG     1      23.669  19.367  19.593  1.00  0.00     0.042 C 
HETATM   19  C   LIG     1      23.882  20.154  18.277  1.00  0.00     0.175 C 
HETATM   20  C   LIG     1      24.305  21.616  18.683  1.00  0.00     0.154 C 
HETATM   21  C   LIG     1      24.293  18.554  25.825  1.00  0.00     0.058 C 
ENDROOT
BRANCH  20  22
HETATM   22  C   LIG     1      25.812  21.846  18.460  1.00  0.00     0.188 C 
HETATM   23  O   LIG     1      26.598  20.911  18.529  1.00  0.00    -0.292 OA
BRANCH  22  24
HETATM   24  C   LIG     1      26.361  23.224  18.189  1.00  0.00     0.260 C 
BRANCH  24  25
HETATM   25  O   LIG     1      27.417  23.527  19.100  1.00  0.00    -0.314 OA
BRANCH  25  26
HETATM   26  C   LIG     1      27.508  24.733  19.804  1.00  0.00     0.255 C 
HETATM   27  C   LIG     1      27.390  26.020  19.060  1.00  0.00     0.126 C 
HETATM   28  O   LIG     1      27.649  24.742  21.057  1.00  0.00    -0.266 OA
ENDBRANCH  25  26
ENDBRANCH  24  25
ENDBRANCH  22  24
ENDBRANCH  20  22
BRANCH  20  29
HETATM   29  O   LIG     1      23.588  22.569  17.927  1.00  0.00    -0.378 OA
HETATM   30  H   LIG     1      23.166  23.202  18.566  1.00  0.00     0.211 HD
ENDBRANCH  20  29
BRANCH  19  31
HETATM   31  O   LIG     1      22.674  20.169  17.509  1.00  0.00    -0.313 OA
BRANCH  31  32
HETATM   32  C   LIG     1      22.222  19.075  16.764  1.00  0.00     0.255 C 
HETATM   33  C   LIG     1      21.007  18.336  17.213  1.00  0.00     0.126 C 
HETATM   34  O   LIG     1      22.853  18.681  15.746  1.00  0.00    -0.266 OA
ENDBRANCH  31  32
ENDBRANCH  19  31
BRANCH  13  35
HETATM   35  O   LIG     1      25.463  23.094  23.342  1.00  0.00    -0.392 OA
HETATM   36  H   LIG     1      25.554  22.517  24.147  1.00  0.00     0.210 HD
ENDBRANCH  13  35
TORSDOF 8
ENDMDL
MODEL 6
REMARK VINA RESULT:      -4.5      2.817      6.595
REMARK  8 active torsions:
REMARK  status: ('A' for Active; 'I' for Inactive)
REMARK    1  A    between atoms: C_13  and  O_14 
REMARK    2  A    between atoms: C_20  and  O_21 
REMARK    3  A    between atoms: O_21  and  C_22 
REMARK    4  A    between atoms: C_25  and  C_27 
REMARK    5  A    between atoms: C_25  and  O_26 
REMARK    6  A    between atoms: C_27  and  C_28 
REMARK    7  A    between atoms: C_28  and  O_29 
REMARK    8  A    between atoms: O_29  and  C_30 
ROOT
HETATM    1  O   LIG     1      27.057  20.418  30.063  1.00  0.00    -0.289 OA
HETATM    2  C   LIG     1      26.689  20.863  28.944  1.00  0.00     0.172 C 
HETATM    3  C   LIG     1      27.675  21.170  27.899  1.00  0.00     0.052 C 
HETATM    4  C   LIG     1      27.281  21.804  26.787  1.00  0.00    -0.006 C 
HETATM    5  C   LIG     1      25.903  22.475  26.716  1.00  0.00     0.036 C 
HETATM    6  C   LIG     1      25.984  23.827  27.468  1.00  0.00     0.028 C 
HETATM    7  C   LIG     1      24.891  21.571  27.470  1.00  0.00    -0.061 C 
HETATM    8  C   LIG     1      23.516  21.291  26.880  1.00  0.00     0.036 C 
HETATM    9  C   LIG     1      23.579  20.893  25.376  1.00  0.00     0.013 C 
HETATM   10  C   LIG     1      24.924  21.283  24.713  1.00  0.00     0.035 C 
HETATM   11  C   LIG     1      25.386  22.696  25.233  1.00  0.00     0.147 C 
HETATM   12  F   LIG     1      24.244  23.480  25.375  1.00  0.00    -0.238 F 
HETATM   13  C   LIG     1      26.301  23.547  24.244  1.00  0.00     0.160 C 
HETATM   14  C   LIG     1      26.422  23.025  22.785  1.00  0.00     0.048 C 
HETATM   15  C   LIG     1      25.173  22.259  22.287  1.00  0.00     0.004 C 
HETATM   16  C   LIG     1      23.910  23.183  22.307  1.00  0.00     0.019 C 
HETATM   17  C   LIG     1      25.032  21.031  23.179  1.00  0.00     0.007 C 
HETATM   18  C   LIG     1      24.031  20.132  22.466  1.00  0.00     0.042 C 
HETATM   19  C   LIG     1      24.309  20.365  20.961  1.00  0.00     0.175 C 
HETATM   20  C   LIG     1      25.283  21.599  20.862  1.00  0.00     0.154 C 
HETATM   21  C   LIG     1      25.261  20.955  28.606  1.00  0.00     0.058 C 
ENDROOT
BRANCH  20  22
HETATM   22  C   LIG     1      26.719  21.153  20.531  1.00  0.00     0.188 C 
HETATM   23  O   LIG     1      27.253  20.256  21.170  1.00  0.00    -0.292 OA
BRANCH  22  24
HETATM   24  C   LIG     1      27.516  21.828  19.442  1.00  0.00     0.260 C 
BRANCH  24  25
HETATM   25  O   LIG     1      27.872  23.152  19.835  1.00  0.00    -0.314 OA
BRANCH  25  26
HETATM   26  C   LIG     1      27.360  24.303  19.225  1.00  0.00     0.255 C 
HETATM   27  C   LIG     1      27.824  24.670  17.856  1.00  0.00     0.126 C 
HETATM   28  O   LIG     1      26.487  25.008  19.802  1.00  0.00    -0.266 OA
ENDBRANCH  25  26
ENDBRANCH  24  25
ENDBRANCH  22  24
ENDBRANCH  20  22
BRANCH  20  29
HETATM   29  O   LIG     1      24.847  22.496  19.863  1.00  0.00    -0.378 OA
HETATM   30  H   LIG     1      24.798  23.400  20.273  1.00  0.00     0.211 HD
ENDBRANCH  20  29
BRANCH  19  31
HETATM   31  O   LIG     1      23.084  20.626  20.268  1.00  0.00    -0.313 OA
BRANCH  31  32
HETATM   32  C   LIG     1      22.810  20.148  18.982  1.00  0.00     0.255 C 
HETATM   33  C   LIG     1      22.434  18.717  18.798  1.00  0.00     0.126 C 
HETATM   34  O   LIG     1      22.920  20.900  17.976  1.00  0.00    -0.266 OA
ENDBRANCH  31  32
ENDBRANCH  19  31
BRANCH  13  35
HETATM   35  O   LIG     1      27.585  23.775  24.761  1.00  0.00    -0.392 OA
HETATM   36  H   LIG     1      27.664  24.749  24.942  1.00  0.00     0.210 HD
ENDBRANCH  13  35
TORSDOF 8
ENDMDL
MODEL 7
REMARK VINA RESULT:      -4.5      2.859      5.471
REMARK  8 active torsions:
REMARK  status: ('A' for Active; 'I' for Inactive)
REMARK    1  A    between atoms: C_13  and  O_14 
REMARK    2  A    between atoms: C_20  and  O_21 
REMARK    3  A    between atoms: O_21  and  C_22 
REMARK    4  A    between atoms: C_25  and  C_27 
REMARK    5  A    between atoms: C_25  and  O_26 
REMARK    6  A    between atoms: C_27  and  C_28 
REMARK    7  A    between atoms: C_28  and  O_29 
REMARK    8  A    between atoms: O_29  and  C_30 
ROOT
HETATM    1  O   LIG     1      22.942  22.058  18.307  1.00  0.00    -0.289 OA
HETATM    2  C   LIG     1      23.700  21.991  19.310  1.00  0.00     0.172 C 
HETATM    3  C   LIG     1      25.096  22.442  19.224  1.00  0.00     0.052 C 
HETATM    4  C   LIG     1      25.930  22.201  20.244  1.00  0.00    -0.006 C 
HETATM    5  C   LIG     1      25.544  21.215  21.354  1.00  0.00     0.036 C 
HETATM    6  C   LIG     1      25.766  19.777  20.822  1.00  0.00     0.028 C 
HETATM    7  C   LIG     1      24.028  21.387  21.641  1.00  0.00    -0.061 C 
HETATM    8  C   LIG     1      23.512  21.427  23.072  1.00  0.00     0.036 C 
HETATM    9  C   LIG     1      24.345  22.377  23.983  1.00  0.00     0.013 C 
HETATM   10  C   LIG     1      25.730  22.720  23.378  1.00  0.00     0.035 C 
HETATM   11  C   LIG     1      26.349  21.438  22.702  1.00  0.00     0.147 C 
HETATM   12  F   LIG     1      26.009  20.345  23.496  1.00  0.00    -0.238 F 
HETATM   13  C   LIG     1      27.940  21.373  22.640  1.00  0.00     0.160 C 
HETATM   14  C   LIG     1      28.714  22.430  23.476  1.00  0.00     0.048 C 
HETATM   15  C   LIG     1      27.964  22.895  24.748  1.00  0.00     0.004 C 
HETATM   16  C   LIG     1      27.708  21.691  25.713  1.00  0.00     0.019 C 
HETATM   17  C   LIG     1      26.681  23.568  24.274  1.00  0.00     0.007 C 
HETATM   18  C   LIG     1      26.146  24.309  25.491  1.00  0.00     0.042 C 
HETATM   19  C   LIG     1      27.414  24.780  26.243  1.00  0.00     0.175 C 
HETATM   20  C   LIG     1      28.640  24.056  25.569  1.00  0.00     0.154 C 
HETATM   21  C   LIG     1      23.173  21.595  20.624  1.00  0.00     0.058 C 
ENDROOT
BRANCH  20  22
HETATM   22  C   LIG     1      29.438  25.021  24.674  1.00  0.00     0.188 C 
HETATM   23  O   LIG     1      30.656  24.937  24.603  1.00  0.00    -0.292 OA
BRANCH  22  24
HETATM   24  C   LIG     1      28.750  26.114  23.893  1.00  0.00     0.260 C 
BRANCH  24  25
HETATM   25  O   LIG     1      29.327  26.237  22.595  1.00  0.00    -0.314 OA
BRANCH  25  26
HETATM   26  C   LIG     1      29.018  25.388  21.527  1.00  0.00     0.255 C 
HETATM   27  C   LIG     1      27.622  25.355  21.004  1.00  0.00     0.126 C 
HETATM   28  O   LIG     1      29.910  24.682  20.982  1.00  0.00    -0.266 OA
ENDBRANCH  25  26
ENDBRANCH  24  25
ENDBRANCH  22  24
ENDBRANCH  20  22
BRANCH  20  29
HETATM   29  O   LIG     1      29.507  23.530  26.551  1.00  0.00    -0.378 OA
HETATM   30  H   LIG     1      29.051  22.752  26.968  1.00  0.00     0.211 HD
ENDBRANCH  20  29
BRANCH  19  31
HETATM   31  O   LIG     1      27.321  24.439  27.630  1.00  0.00    -0.313 OA
BRANCH  31  32
HETATM   32  C   LIG     1      27.837  25.238  28.656  1.00  0.00     0.255 C 
HETATM   33  C   LIG     1      27.277  25.113  30.032  1.00  0.00     0.126 C 
HETATM   34  O   LIG     1      28.736  26.090  28.422  1.00  0.00    -0.266 OA
ENDBRANCH  31  32
ENDBRANCH  19  31
BRANCH  13  35
HETATM   35  O   LIG     1      28.428  21.377  21.324  1.00  0.00    -0.392 OA
HETATM   36  H   LIG     1      28.123  22.222  20.897  1.00  0.00     0.210 HD
ENDBRANCH  13  35
TORSDOF 8
ENDMDL
MODEL 8
REMARK VINA RESULT:      -4.2      5.066      8.943
REMARK  8 active torsions:
REMARK  status: ('A' for Active; 'I' for Inactive)
REMARK    1  A    between atoms: C_13  and  O_14 
REMARK    2  A    between atoms: C_20  and  O_21 
REMARK    3  A    between atoms: O_21  and  C_22 
REMARK    4  A    between atoms: C_25  and  C_27 
REMARK    5  A    between atoms: C_25  and  O_26 
REMARK    6  A    between atoms: C_27  and  C_28 
REMARK    7  A    between atoms: C_28  and  O_29 
REMARK    8  A    between atoms: O_29  and  C_30 
ROOT
HETATM    1  O   LIG     1      26.562  28.040  34.763  1.00  0.00    -0.289 OA
HETATM    2  C   LIG     1      26.973  27.352  33.792  1.00  0.00     0.172 C 
HETATM    3  C   LIG     1      27.079  25.890  33.902  1.00  0.00     0.052 C 
HETATM    4  C   LIG     1      27.680  25.198  32.926  1.00  0.00    -0.006 C 
HETATM    5  C   LIG     1      28.515  25.916  31.858  1.00  0.00     0.036 C 
HETATM    6  C   LIG     1      29.894  26.261  32.475  1.00  0.00     0.028 C 
HETATM    7  C   LIG     1      27.803  27.250  31.510  1.00  0.00    -0.061 C 
HETATM    8  C   LIG     1      27.662  27.696  30.062  1.00  0.00     0.036 C 
HETATM    9  C   LIG     1      27.156  26.555  29.130  1.00  0.00     0.013 C 
HETATM   10  C   LIG     1      27.324  25.151  29.763  1.00  0.00     0.035 C 
HETATM   11  C   LIG     1      28.699  25.071  30.528  1.00  0.00     0.147 C 
HETATM   12  F   LIG     1      29.630  25.791  29.784  1.00  0.00    -0.238 F 
HETATM   13  C   LIG     1      29.355  23.624  30.649  1.00  0.00     0.160 C 
HETATM   14  C   LIG     1      28.724  22.498  29.784  1.00  0.00     0.048 C 
HETATM   15  C   LIG     1      28.091  23.001  28.463  1.00  0.00     0.004 C 
HETATM   16  C   LIG     1      29.168  23.683  27.557  1.00  0.00     0.019 C 
HETATM   17  C   LIG     1      26.956  23.939  28.856  1.00  0.00     0.007 C 
HETATM   18  C   LIG     1      26.146  24.140  27.582  1.00  0.00     0.042 C 
HETATM   19  C   LIG     1      26.237  22.779  26.850  1.00  0.00     0.175 C 
HETATM   20  C   LIG     1      27.326  21.927  27.605  1.00  0.00     0.154 C 
HETATM   21  C   LIG     1      27.224  27.974  32.484  1.00  0.00     0.058 C 
ENDROOT
BRANCH  20  22
HETATM   22  C   LIG     1      26.678  20.833  28.473  1.00  0.00     0.188 C 
HETATM   23  O   LIG     1      27.294  19.811  28.744  1.00  0.00    -0.292 OA
BRANCH  22  24
HETATM   24  C   LIG     1      25.264  20.971  28.980  1.00  0.00     0.260 C 
BRANCH  24  25
HETATM   25  O   LIG     1      24.407  20.039  28.325  1.00  0.00    -0.314 OA
BRANCH  25  26
HETATM   26  C   LIG     1      23.858  20.253  27.056  1.00  0.00     0.255 C 
HETATM   27  C   LIG     1      22.814  21.305  26.882  1.00  0.00     0.126 C 
HETATM   28  O   LIG     1      24.261  19.597  26.057  1.00  0.00    -0.266 OA
ENDBRANCH  25  26
ENDBRANCH  24  25
ENDBRANCH  22  24
ENDBRANCH  20  22
BRANCH  20  29
HETATM   29  O   LIG     1      28.201  21.312  26.683  1.00  0.00    -0.378 OA
HETATM   30  H   LIG     1      28.644  22.033  26.163  1.00  0.00     0.211 HD
ENDBRANCH  20  29
BRANCH  19  31
HETATM   31  O   LIG     1      26.605  22.978  25.482  1.00  0.00    -0.313 OA
BRANCH  31  32
HETATM   32  C   LIG     1      26.042  22.261  24.420  1.00  0.00     0.255 C 
HETATM   33  C   LIG     1      24.841  22.807  23.726  1.00  0.00     0.126 C 
HETATM   34  O   LIG     1      26.510  21.143  24.075  1.00  0.00    -0.266 OA
ENDBRANCH  31  32
ENDBRANCH  19  31
BRANCH  13  35
HETATM   35  O   LIG     1      29.452  23.186  31.978  1.00  0.00    -0.392 OA
HETATM   36  H   LIG     1      28.583  22.767  32.217  1.00  0.00     0.210 HD
ENDBRANCH  13  35
TORSDOF 8
ENDMDL
MODEL 9
REMARK VINA RESULT:      -4.2      2.490      5.237
REMARK  8 active torsions:
REMARK  status: ('A' for Active; 'I' for Inactive)
REMARK    1  A    between atoms: C_13  and  O_14 
REMARK    2  A    between atoms: C_20  and  O_21 
REMARK    3  A    between atoms: O_21  and  C_22 
REMARK    4  A    between atoms: C_25  and  C_27 
REMARK    5  A    between atoms: C_25  and  O_26 
REMARK    6  A    between atoms: C_27  and  C_28 
REMARK    7  A    between atoms: C_28  and  O_29 
REMARK    8  A    between atoms: O_29  and  C_30 
ROOT
HETATM    1  O   LIG     1      25.164  20.124  16.756  1.00  0.00    -0.289 OA
HETATM    2  C   LIG     1      25.012  20.503  17.947  1.00  0.00     0.172 C 
HETATM    3  C   LIG     1      24.468  19.588  18.960  1.00  0.00     0.052 C 
HETATM    4  C   LIG     1      24.151  20.061  20.172  1.00  0.00    -0.006 C 
HETATM    5  C   LIG     1      24.062  21.572  20.424  1.00  0.00     0.036 C 
HETATM    6  C   LIG     1      22.707  22.075  19.864  1.00  0.00     0.028 C 
HETATM    7  C   LIG     1      25.195  22.259  19.617  1.00  0.00    -0.061 C 
HETATM    8  C   LIG     1      26.034  23.362  20.247  1.00  0.00     0.036 C 
HETATM    9  C   LIG     1      26.536  22.991  21.674  1.00  0.00     0.013 C 
HETATM   10  C   LIG     1      25.740  21.817  22.299  1.00  0.00     0.035 C 
HETATM   11  C   LIG     1      24.210  21.965  21.953  1.00  0.00     0.147 C 
HETATM   12  F   LIG     1      23.905  23.324  21.994  1.00  0.00    -0.238 F 
HETATM   13  C   LIG     1      23.187  21.322  22.991  1.00  0.00     0.160 C 
HETATM   14  C   LIG     1      23.775  20.856  24.352  1.00  0.00     0.048 C 
HETATM   15  C   LIG     1      25.005  21.675  24.817  1.00  0.00     0.004 C 
HETATM   16  C   LIG     1      24.629  23.182  25.006  1.00  0.00     0.019 C 
HETATM   17  C   LIG     1      26.093  21.454  23.773  1.00  0.00     0.007 C 
HETATM   18  C   LIG     1      27.373  21.971  24.414  1.00  0.00     0.042 C 
HETATM   19  C   LIG     1      27.214  21.633  25.916  1.00  0.00     0.175 C 
HETATM   20  C   LIG     1      25.721  21.173  26.125  1.00  0.00     0.154 C 
HETATM   21  C   LIG     1      25.502  21.818  18.384  1.00  0.00     0.058 C 
ENDROOT
BRANCH  20  22
HETATM   22  C   LIG     1      25.625  19.646  26.299  1.00  0.00     0.188 C 
HETATM   23  O   LIG     1      26.211  18.897  25.530  1.00  0.00    -0.292 OA
BRANCH  22  24
HETATM   24  C   LIG     1      24.782  19.035  27.391  1.00  0.00     0.260 C 
BRANCH  24  25
HETATM   25  O   LIG     1      23.395  19.217  27.110  1.00  0.00    -0.314 OA
BRANCH  25  26
HETATM   26  C   LIG     1      22.487  19.762  28.024  1.00  0.00     0.255 C 
HETATM   27  C   LIG     1      21.684  20.956  27.629  1.00  0.00     0.126 C 
HETATM   28  O   LIG     1      22.313  19.235  29.157  1.00  0.00    -0.266 OA
ENDBRANCH  25  26
ENDBRANCH  24  25
ENDBRANCH  22  24
ENDBRANCH  20  22
BRANCH  20  29
HETATM   29  O   LIG     1      25.166  21.793  27.265  1.00  0.00    -0.378 OA
HETATM   30  H   LIG     1      24.330  21.307  27.493  1.00  0.00     0.211 HD
ENDBRANCH  20  29
BRANCH  19  31
HETATM   31  O   LIG     1      27.508  22.783  26.716  1.00  0.00    -0.313 OA
BRANCH  31  32
HETATM   32  C   LIG     1      28.393  23.791  26.318  1.00  0.00     0.255 C 
HETATM   33  C   LIG     1      27.850  25.059  25.752  1.00  0.00     0.126 C 
HETATM   34  O   LIG     1      29.640  23.623  26.392  1.00  0.00    -0.266 OA
ENDBRANCH  31  32
ENDBRANCH  19  31
BRANCH  13  35
HETATM   35  O   LIG     1      22.438  20.276  22.431  1.00  0.00    -0.392 OA
HETATM   36  H   LIG     1      21.670  20.685  21.949  1.00  0.00     0.210 HD
ENDBRANCH  13  35
TORSDOF 8
ENDMDL
MODEL 10
REMARK VINA RESULT:      -4.2      3.472      7.712
REMARK  8 active torsions:
REMARK  status: ('A' for Active; 'I' for Inactive)
REMARK    1  A    between atoms: C_13  and  O_14 
REMARK    2  A    between atoms: C_20  and  O_21 
REMARK    3  A    between atoms: O_21  and  C_22 
REMARK    4  A    between atoms: C_25  and  C_27 
REMARK    5  A    between atoms: C_25  and  O_26 
REMARK    6  A    between atoms: C_27  and  C_28 
REMARK    7  A    between atoms: C_28  and  O_29 
REMARK    8  A    between atoms: O_29  and  C_30 
ROOT
HETATM    1  O   LIG     1      27.157  27.739  31.198  1.00  0.00    -0.289 OA
HETATM    2  C   LIG     1      27.585  27.028  30.251  1.00  0.00     0.172 C 
HETATM    3  C   LIG     1      26.942  25.747  29.926  1.00  0.00     0.052 C 
HETATM    4  C   LIG     1      27.517  24.929  29.036  1.00  0.00    -0.006 C 
HETATM    5  C   LIG     1      28.963  25.159  28.581  1.00  0.00     0.036 C 
HETATM    6  C   LIG     1      29.908  24.631  29.690  1.00  0.00     0.028 C 
HETATM    7  C   LIG     1      29.188  26.689  28.455  1.00  0.00    -0.061 C 
HETATM    8  C   LIG     1      29.928  27.266  27.257  1.00  0.00     0.036 C 
HETATM    9  C   LIG     1      29.425  26.681  25.904  1.00  0.00     0.013 C 
HETATM   10  C   LIG     1      28.624  25.367  26.084  1.00  0.00     0.035 C 
HETATM   11  C   LIG     1      29.303  24.475  27.191  1.00  0.00     0.147 C 
HETATM   12  F   LIG     1      30.681  24.625  27.057  1.00  0.00    -0.238 F 
HETATM   13  C   LIG     1      29.085  22.902  27.061  1.00  0.00     0.160 C 
HETATM   14  C   LIG     1      28.462  22.393  25.731  1.00  0.00     0.048 C 
HETATM   15  C   LIG     1      28.795  23.276  24.504  1.00  0.00     0.004 C 
HETATM   16  C   LIG     1      30.340  23.329  24.261  1.00  0.00     0.019 C 
HETATM   17  C   LIG     1      28.183  24.645  24.776  1.00  0.00     0.007 C 
HETATM   18  C   LIG     1      28.219  25.371  23.438  1.00  0.00     0.042 C 
HETATM   19  C   LIG     1      27.984  24.257  22.390  1.00  0.00     0.175 C 
HETATM   20  C   LIG     1      28.092  22.883  23.152  1.00  0.00     0.154 C 
HETATM   21  C   LIG     1      28.646  27.523  29.361  1.00  0.00     0.058 C 
ENDROOT
BRANCH  20  22
HETATM   22  C   LIG     1      26.703  22.255  23.373  1.00  0.00     0.188 C 
HETATM   23  O   LIG     1      26.566  21.039  23.371  1.00  0.00    -0.292 OA
BRANCH  22  24
HETATM   24  C   LIG     1      25.477  23.114  23.559  1.00  0.00     0.260 C 
BRANCH  24  25
HETATM   25  O   LIG     1      24.348  22.512  22.929  1.00  0.00    -0.314 OA
BRANCH  25  26
HETATM   26  C   LIG     1      23.879  22.885  21.664  1.00  0.00     0.255 C 
HETATM   27  C   LIG     1      22.430  22.725  21.348  1.00  0.00     0.126 C 
HETATM   28  O   LIG     1      24.657  23.388  20.808  1.00  0.00    -0.266 OA
ENDBRANCH  25  26
ENDBRANCH  24  25
ENDBRANCH  22  24
ENDBRANCH  20  22
BRANCH  20  29
HETATM   29  O   LIG     1      28.888  21.972  22.424  1.00  0.00    -0.378 OA
HETATM   30  H   LIG     1      28.292  21.495  21.789  1.00  0.00     0.211 HD
ENDBRANCH  20  29
BRANCH  19  31
HETATM   31  O   LIG     1      28.966  24.341  21.352  1.00  0.00    -0.313 OA
BRANCH  31  32
HETATM   32  C   LIG     1      28.741  24.981  20.128  1.00  0.00     0.255 C 
HETATM   33  C   LIG     1      27.399  25.566  19.845  1.00  0.00     0.126 C 
HETATM   34  O   LIG     1      29.643  25.029  19.248  1.00  0.00    -0.266 OA
ENDBRANCH  31  32
ENDBRANCH  19  31
BRANCH  13  35
HETATM   35  O   LIG     1      28.366  22.367  28.141  1.00  0.00    -0.392 OA
HETATM   36  H   LIG     1      27.482  22.075  27.795  1.00  0.00     0.210 HD
ENDBRANCH  13  35
TORSDOF 8
ENDMDL
MODEL 11
REMARK VINA RESULT:      -3.9      5.467      9.198
REMARK  8 active torsions:
REMARK  status: ('A' for Active; 'I' for Inactive)
REMARK    1  A    between atoms: C_13  and  O_14 
REMARK    2  A    between atoms: C_20  and  O_21 
REMARK    3  A    between atoms: O_21  and  C_22 
REMARK    4  A    between atoms: C_25  and  C_27 
REMARK    5  A    between atoms: C_25  and  O_26 
REMARK    6  A    between atoms: C_27  and  C_28 
REMARK    7  A    between atoms: C_28  and  O_29 
REMARK    8  A    between atoms: O_29  and  C_30 
ROOT
HETATM    1  O   LIG     1      26.537  27.841  34.702  1.00  0.00    -0.289 OA
HETATM    2  C   LIG     1      26.967  27.138  33.750  1.00  0.00     0.172 C 
HETATM    3  C   LIG     1      27.283  25.717  33.953  1.00  0.00     0.052 C 
HETATM    4  C   LIG     1      27.901  25.035  32.980  1.00  0.00    -0.006 C 
HETATM    5  C   LIG     1      28.545  25.769  31.797  1.00  0.00     0.036 C 
HETATM    6  C   LIG     1      29.905  26.344  32.269  1.00  0.00     0.028 C 
HETATM    7  C   LIG     1      27.630  26.963  31.418  1.00  0.00    -0.061 C 
HETATM    8  C   LIG     1      27.320  27.267  29.960  1.00  0.00     0.036 C 
HETATM    9  C   LIG     1      26.911  25.997  29.157  1.00  0.00     0.013 C 
HETATM   10  C   LIG     1      27.320  24.684  29.870  1.00  0.00     0.035 C 
HETATM   11  C   LIG     1      28.745  24.851  30.520  1.00  0.00     0.147 C 
HETATM   12  F   LIG     1      29.509  25.625  29.650  1.00  0.00    -0.238 F 
HETATM   13  C   LIG     1      29.605  23.519  30.685  1.00  0.00     0.160 C 
HETATM   14  C   LIG     1      29.074  22.252  29.959  1.00  0.00     0.048 C 
HETATM   15  C   LIG     1      28.281  22.557  28.664  1.00  0.00     0.004 C 
HETATM   16  C   LIG     1      29.181  23.301  27.624  1.00  0.00     0.019 C 
HETATM   17  C   LIG     1      27.058  23.364  29.085  1.00  0.00     0.007 C 
HETATM   18  C   LIG     1      26.135  23.351  27.874  1.00  0.00     0.042 C 
HETATM   19  C   LIG     1      26.361  21.959  27.234  1.00  0.00     0.175 C 
HETATM   20  C   LIG     1      27.611  21.324  27.951  1.00  0.00     0.154 C 
HETATM   21  C   LIG     1      27.030  27.680  32.385  1.00  0.00     0.058 C 
ENDROOT
BRANCH  20  22
HETATM   22  C   LIG     1      27.189  20.228  28.946  1.00  0.00     0.188 C 
HETATM   23  O   LIG     1      27.896  19.245  29.122  1.00  0.00    -0.292 OA
BRANCH  22  24
HETATM   24  C   LIG     1      25.885  20.315  29.700  1.00  0.00     0.260 C 
BRANCH  24  25
HETATM   25  O   LIG     1      25.941  19.523  30.885  1.00  0.00    -0.314 OA
BRANCH  25  26
HETATM   26  C   LIG     1      25.882  20.059  32.176  1.00  0.00     0.255 C 
HETATM   27  C   LIG     1      27.085  20.740  32.737  1.00  0.00     0.126 C 
HETATM   28  O   LIG     1      24.818  20.007  32.851  1.00  0.00    -0.266 OA
ENDBRANCH  25  26
ENDBRANCH  24  25
ENDBRANCH  22  24
ENDBRANCH  20  22
BRANCH  20  29
HETATM   29  O   LIG     1      28.492  20.759  27.004  1.00  0.00    -0.378 OA
HETATM   30  H   LIG     1      29.151  20.206  27.501  1.00  0.00     0.211 HD
ENDBRANCH  20  29
BRANCH  19  31
HETATM   31  O   LIG     1      26.594  22.094  25.829  1.00  0.00    -0.313 OA
BRANCH  31  32
HETATM   32  C   LIG     1      26.144  23.182  25.074  1.00  0.00     0.255 C 
HETATM   33  C   LIG     1      27.094  24.279  24.731  1.00  0.00     0.126 C 
HETATM   34  O   LIG     1      24.937  23.268  24.719  1.00  0.00    -0.266 OA
ENDBRANCH  31  32
ENDBRANCH  19  31
BRANCH  13  35
HETATM   35  O   LIG     1      29.860  23.207  32.029  1.00  0.00    -0.392 OA
HETATM   36  H   LIG     1      30.736  22.738  32.065  1.00  0.00     0.210 HD
ENDBRANCH  13  35
TORSDOF 8
ENDMDL
MODEL 12
REMARK VINA RESULT:      -3.8      3.456      6.671
REMARK  8 active torsions:
REMARK  status: ('A' for Active; 'I' for Inactive)
REMARK    1  A    between atoms: C_13  and  O_14 
REMARK    2  A    between atoms: C_20  and  O_21 
REMARK    3  A    between atoms: O_21  and  C_22 
REMARK    4  A    between atoms: C_25  and  C_27 
REMARK    5  A    between atoms: C_25  and  O_26 
REMARK    6  A    between atoms: C_27  and  C_28 
REMARK    7  A    between atoms: C_28  and  O_29 
REMARK    8  A    between atoms: O_29  and  C_30 
ROOT
HETATM    1  O   LIG     1      28.767  28.975  29.757  1.00  0.00    -0.289 OA
HETATM    2  C   LIG     1      28.565  27.831  29.271  1.00  0.00     0.172 C 
HETATM    3  C   LIG     1      27.591  26.918  29.885  1.00  0.00     0.052 C 
HETATM    4  C   LIG     1      27.520  25.650  29.462  1.00  0.00    -0.006 C 
HETATM    5  C   LIG     1      28.621  25.058  28.573  1.00  0.00     0.036 C 
HETATM    6  C   LIG     1      29.828  24.698  29.475  1.00  0.00     0.028 C 
HETATM    7  C   LIG     1      29.081  26.161  27.582  1.00  0.00    -0.061 C 
HETATM    8  C   LIG     1      29.308  25.835  26.113  1.00  0.00     0.036 C 
HETATM    9  C   LIG     1      28.141  25.007  25.497  1.00  0.00     0.013 C 
HETATM   10  C   LIG     1      27.250  24.339  26.574  1.00  0.00     0.035 C 
HETATM   11  C   LIG     1      28.149  23.790  27.745  1.00  0.00     0.147 C 
HETATM   12  F   LIG     1      29.318  23.293  27.174  1.00  0.00    -0.238 F 
HETATM   13  C   LIG     1      27.571  22.545  28.554  1.00  0.00     0.160 C 
HETATM   14  C   LIG     1      26.327  21.838  27.948  1.00  0.00     0.048 C 
HETATM   15  C   LIG     1      26.251  21.916  26.404  1.00  0.00     0.004 C 
HETATM   16  C   LIG     1      27.495  21.227  25.752  1.00  0.00     0.019 C 
HETATM   17  C   LIG     1      26.129  23.393  26.049  1.00  0.00     0.007 C 
HETATM   18  C   LIG     1      25.713  23.419  24.585  1.00  0.00     0.042 C 
HETATM   19  C   LIG     1      24.804  22.176  24.422  1.00  0.00     0.175 C 
HETATM   20  C   LIG     1      24.951  21.327  25.740  1.00  0.00     0.154 C 
HETATM   21  C   LIG     1      29.191  27.434  28.002  1.00  0.00     0.058 C 
ENDROOT
BRANCH  20  22
HETATM   22  C   LIG     1      23.712  21.475  26.642  1.00  0.00     0.188 C 
HETATM   23  O   LIG     1      23.539  22.495  27.295  1.00  0.00    -0.292 OA
BRANCH  22  24
HETATM   24  C   LIG     1      22.703  20.361  26.774  1.00  0.00     0.260 C 
BRANCH  24  25
HETATM   25  O   LIG     1      22.207  19.984  25.492  1.00  0.00    -0.314 OA
BRANCH  25  26
HETATM   26  C   LIG     1      21.798  18.684  25.173  1.00  0.00     0.255 C 
HETATM   27  C   LIG     1      22.012  18.172  23.789  1.00  0.00     0.126 C 
HETATM   28  O   LIG     1      21.288  17.933  26.049  1.00  0.00    -0.266 OA
ENDBRANCH  25  26
ENDBRANCH  24  25
ENDBRANCH  22  24
ENDBRANCH  20  22
BRANCH  20  29
HETATM   29  O   LIG     1      25.125  19.960  25.433  1.00  0.00    -0.378 OA
HETATM   30  H   LIG     1      24.222  19.558  25.333  1.00  0.00     0.211 HD
ENDBRANCH  20  29
BRANCH  19  31
HETATM   31  O   LIG     1      25.210  21.416  23.279  1.00  0.00    -0.313 OA
BRANCH  31  32
HETATM   32  C   LIG     1      24.426  21.277  22.128  1.00  0.00     0.255 C 
HETATM   33  C   LIG     1      22.950  21.468  22.221  1.00  0.00     0.126 C 
HETATM   34  O   LIG     1      24.946  20.951  21.027  1.00  0.00    -0.266 OA
ENDBRANCH  31  32
ENDBRANCH  19  31
BRANCH  13  35
HETATM   35  O   LIG     1      27.319  22.848  29.901  1.00  0.00    -0.392 OA
HETATM   36  H   LIG     1      26.333  22.892  30.017  1.00  0.00     0.210 HD
ENDBRANCH  13  35
TORSDOF 8
ENDMDL
MODEL 13
REMARK VINA RESULT:      -3.7      5.496      9.721
REMARK  8 active torsions:
REMARK  status: ('A' for Active; 'I' for Inactive)
REMARK    1  A    between atoms: C_13  and  O_14 
REMARK    2  A    between atoms: C_20  and  O_21 
REMARK    3  A    between atoms: O_21  and  C_22 
REMARK    4  A    between atoms: C_25  and  C_27 
REMARK    5  A    between atoms: C_25  and  O_26 
REMARK    6  A    between atoms: C_27  and  C_28 
REMARK    7  A    between atoms: C_28  and  O_29 
REMARK    8  A    between atoms: O_29  and  C_30 
ROOT
HETATM    1  O   LIG     1      26.355  29.181  34.637  1.00  0.00    -0.289 OA
HETATM    2  C   LIG     1      26.846  28.350  33.830  1.00  0.00     0.172 C 
HETATM    3  C   LIG     1      26.352  26.966  33.787  1.00  0.00     0.052 C 
HETATM    4  C   LIG     1      27.003  26.057  33.050  1.00  0.00    -0.006 C 
HETATM    5  C   LIG     1      28.403  26.353  32.499  1.00  0.00     0.036 C 
HETATM    6  C   LIG     1      29.424  26.164  33.650  1.00  0.00     0.028 C 
HETATM    7  C   LIG     1      28.444  27.844  32.069  1.00  0.00    -0.061 C 
HETATM    8  C   LIG     1      29.088  28.251  30.752  1.00  0.00     0.036 C 
HETATM    9  C   LIG     1      28.633  27.358  29.561  1.00  0.00     0.013 C 
HETATM   10  C   LIG     1      27.995  26.024  30.026  1.00  0.00     0.035 C 
HETATM   11  C   LIG     1      28.795  25.451  31.256  1.00  0.00     0.147 C 
HETATM   12  F   LIG     1      30.144  25.724  31.038  1.00  0.00    -0.238 F 
HETATM   13  C   LIG     1      28.761  23.868  31.443  1.00  0.00     0.160 C 
HETATM   14  C   LIG     1      28.179  23.039  30.264  1.00  0.00     0.048 C 
HETATM   15  C   LIG     1      28.382  23.694  28.876  1.00  0.00     0.004 C 
HETATM   16  C   LIG     1      29.905  23.871  28.564  1.00  0.00     0.019 C 
HETATM   17  C   LIG     1      27.618  25.013  28.902  1.00  0.00     0.007 C 
HETATM   18  C   LIG     1      27.544  25.459  27.448  1.00  0.00     0.042 C 
HETATM   19  C   LIG     1      27.422  24.141  26.647  1.00  0.00     0.175 C 
HETATM   20  C   LIG     1      27.705  22.965  27.657  1.00  0.00     0.154 C 
HETATM   21  C   LIG     1      27.824  28.774  32.818  1.00  0.00     0.058 C 
ENDROOT
BRANCH  20  22
HETATM   22  C   LIG     1      26.405  22.242  28.053  1.00  0.00     0.188 C 
HETATM   23  O   LIG     1      26.446  21.186  28.668  1.00  0.00    -0.292 OA
BRANCH  22  24
HETATM   24  C   LIG     1      25.054  22.792  27.665  1.00  0.00     0.260 C 
BRANCH  24  25
HETATM   25  O   LIG     1      24.441  21.960  26.682  1.00  0.00    -0.314 OA
BRANCH  25  26
HETATM   26  C   LIG     1      24.980  21.741  25.409  1.00  0.00     0.255 C 
HETATM   27  C   LIG     1      24.773  22.766  24.346  1.00  0.00     0.126 C 
HETATM   28  O   LIG     1      25.666  20.712  25.165  1.00  0.00    -0.266 OA
ENDBRANCH  25  26
ENDBRANCH  24  25
ENDBRANCH  22  24
ENDBRANCH  20  22
BRANCH  20  29
HETATM   29  O   LIG     1      28.589  22.023  27.087  1.00  0.00    -0.378 OA
HETATM   30  H   LIG     1      29.020  21.528  27.833  1.00  0.00     0.211 HD
ENDBRANCH  20  29
BRANCH  19  31
HETATM   31  O   LIG     1      28.368  24.127  25.573  1.00  0.00    -0.313 OA
BRANCH  31  32
HETATM   32  C   LIG     1      29.031  25.271  25.115  1.00  0.00     0.255 C 
HETATM   33  C   LIG     1      28.433  26.067  24.005  1.00  0.00     0.126 C 
HETATM   34  O   LIG     1      30.145  25.610  25.599  1.00  0.00    -0.266 OA
ENDBRANCH  31  32
ENDBRANCH  19  31
BRANCH  13  35
HETATM   35  O   LIG     1      28.131  23.481  32.635  1.00  0.00    -0.392 OA
HETATM   36  H   LIG     1      28.820  23.054  33.211  1.00  0.00     0.210 HD
ENDBRANCH  13  35
TORSDOF 8
ENDMDL
MODEL 14
REMARK VINA RESULT:      -3.7      2.594      5.240
REMARK  8 active torsions:
REMARK  status: ('A' for Active; 'I' for Inactive)
REMARK    1  A    between atoms: C_13  and  O_14 
REMARK    2  A    between atoms: C_20  and  O_21 
REMARK    3  A    between atoms: O_21  and  C_22 
REMARK    4  A    between atoms: C_25  and  C_27 
REMARK    5  A    between atoms: C_25  and  O_26 
REMARK    6  A    between atoms: C_27  and  C_28 
REMARK    7  A    between atoms: C_28  and  O_29 
REMARK    8  A    between atoms: O_29  and  C_30 
ROOT
HETATM    1  O   LIG     1      25.417  20.331  16.755  1.00  0.00    -0.289 OA
HETATM    2  C   LIG     1      25.244  20.693  17.948  1.00  0.00     0.172 C 
HETATM    3  C   LIG     1      24.829  19.723  18.972  1.00  0.00     0.052 C 
HETATM    4  C   LIG     1      24.482  20.160  20.189  1.00  0.00    -0.006 C 
HETATM    5  C   LIG     1      24.223  21.650  20.442  1.00  0.00     0.036 C 
HETATM    6  C   LIG     1      22.809  21.992  19.907  1.00  0.00     0.028 C 
HETATM    7  C   LIG     1      25.253  22.463  19.614  1.00  0.00    -0.061 C 
HETATM    8  C   LIG     1      25.970  23.657  20.227  1.00  0.00     0.036 C 
HETATM    9  C   LIG     1      26.538  23.350  21.645  1.00  0.00     0.013 C 
HETATM   10  C   LIG     1      25.896  22.093  22.285  1.00  0.00     0.035 C 
HETATM   11  C   LIG     1      24.353  22.063  21.968  1.00  0.00     0.147 C 
HETATM   12  F   LIG     1      23.893  23.376  22.014  1.00  0.00    -0.238 F 
HETATM   13  C   LIG     1      23.430  21.307  23.025  1.00  0.00     0.160 C 
HETATM   14  C   LIG     1      24.094  20.917  24.375  1.00  0.00     0.048 C 
HETATM   15  C   LIG     1      25.229  21.874  24.816  1.00  0.00     0.004 C 
HETATM   16  C   LIG     1      24.685  23.327  25.011  1.00  0.00     0.019 C 
HETATM   17  C   LIG     1      26.316  21.778  23.752  1.00  0.00     0.007 C 
HETATM   18  C   LIG     1      27.539  22.441  24.369  1.00  0.00     0.042 C 
HETATM   19  C   LIG     1      27.448  22.090  25.874  1.00  0.00     0.175 C 
HETATM   20  C   LIG     1      26.023  21.462  26.111  1.00  0.00     0.154 C 
HETATM   21  C   LIG     1      25.586  22.057  18.375  1.00  0.00     0.058 C 
ENDROOT
BRANCH  20  22
HETATM   22  C   LIG     1      26.107  19.935  26.287  1.00  0.00     0.188 C 
HETATM   23  O   LIG     1      25.168  19.313  26.765  1.00  0.00    -0.292 OA
BRANCH  22  24
HETATM   24  C   LIG     1      27.354  19.171  25.914  1.00  0.00     0.260 C 
BRANCH  24  25
HETATM   25  O   LIG     1      27.918  18.545  27.065  1.00  0.00    -0.314 OA
BRANCH  25  26
HETATM   26  C   LIG     1      28.439  19.253  28.153  1.00  0.00     0.255 C 
HETATM   27  C   LIG     1      29.692  20.041  27.976  1.00  0.00     0.126 C 
HETATM   28  O   LIG     1      27.842  19.263  29.265  1.00  0.00    -0.266 OA
ENDBRANCH  25  26
ENDBRANCH  24  25
ENDBRANCH  22  24
ENDBRANCH  20  22
BRANCH  20  29
HETATM   29  O   LIG     1      25.421  22.016  27.261  1.00  0.00    -0.378 OA
HETATM   30  H   LIG     1      24.572  21.525  27.422  1.00  0.00     0.211 HD
ENDBRANCH  20  29
BRANCH  19  31
HETATM   31  O   LIG     1      27.622  23.269  26.668  1.00  0.00    -0.313 OA
BRANCH  31  32
HETATM   32  C   LIG     1      28.804  24.017  26.686  1.00  0.00     0.255 C 
HETATM   33  C   LIG     1      28.781  25.432  26.218  1.00  0.00     0.126 C 
HETATM   34  O   LIG     1      29.893  23.497  27.052  1.00  0.00    -0.266 OA
ENDBRANCH  31  32
ENDBRANCH  19  31
BRANCH  13  35
HETATM   35  O   LIG     1      22.798  20.180  22.479  1.00  0.00    -0.392 OA
HETATM   36  H   LIG     1      22.700  19.512  23.209  1.00  0.00     0.210 HD
ENDBRANCH  13  35
TORSDOF 8
ENDMDL
MODEL 15
REMARK VINA RESULT:      -3.6      2.734      6.942
REMARK  8 active torsions:
REMARK  status: ('A' for Active; 'I' for Inactive)
REMARK    1  A    between atoms: C_13  and  O_14 
REMARK    2  A    between atoms: C_20  and  O_21 
REMARK    3  A    between atoms: O_21  and  C_22 
REMARK    4  A    between atoms: C_25  and  C_27 
REMARK    5  A    between atoms: C_25  and  O_26 
REMARK    6  A    between atoms: C_27  and  C_28 
REMARK    7  A    between atoms: C_28  and  O_29 
REMARK    8  A    between atoms: O_29  and  C_30 
ROOT
HETATM    1  O   LIG     1      27.698  18.039  28.507  1.00  0.00    -0.289 OA
HETATM    2  C   LIG     1      27.188  18.797  27.641  1.00  0.00     0.172 C 
HETATM    3  C   LIG     1      27.909  19.990  27.174  1.00  0.00     0.052 C 
HETATM    4  C   LIG     1      27.280  20.873  26.389  1.00  0.00    -0.006 C 
HETATM    5  C   LIG     1      25.757  20.822  26.216  1.00  0.00     0.036 C 
HETATM    6  C   LIG     1      25.106  21.460  27.470  1.00  0.00     0.028 C 
HETATM    7  C   LIG     1      25.331  19.330  26.168  1.00  0.00    -0.061 C 
HETATM    8  C   LIG     1      24.315  18.849  25.141  1.00  0.00     0.036 C 
HETATM    9  C   LIG     1      24.622  19.369  23.706  1.00  0.00     0.013 C 
HETATM   10  C   LIG     1      25.595  20.575  23.705  1.00  0.00     0.035 C 
HETATM   11  C   LIG     1      25.247  21.543  24.899  1.00  0.00     0.147 C 
HETATM   12  F   LIG     1      23.860  21.562  25.027  1.00  0.00    -0.238 F 
HETATM   13  C   LIG     1      25.624  23.078  24.696  1.00  0.00     0.160 C 
HETATM   14  C   LIG     1      26.043  23.509  23.262  1.00  0.00     0.048 C 
HETATM   15  C   LIG     1      25.382  22.673  22.138  1.00  0.00     0.004 C 
HETATM   16  C   LIG     1      23.825  22.809  22.188  1.00  0.00     0.019 C 
HETATM   17  C   LIG     1      25.866  21.239  22.322  1.00  0.00     0.007 C 
HETATM   18  C   LIG     1      25.493  20.524  21.030  1.00  0.00     0.042 C 
HETATM   19  C   LIG     1      25.659  21.602  19.932  1.00  0.00     0.175 C 
HETATM   20  C   LIG     1      25.862  22.979  20.671  1.00  0.00     0.154 C 
HETATM   21  C   LIG     1      25.929  18.436  26.975  1.00  0.00     0.058 C 
ENDROOT
BRANCH  20  22
HETATM   22  C   LIG     1      27.332  23.432  20.615  1.00  0.00     0.188 C 
HETATM   23  O   LIG     1      28.237  22.611  20.675  1.00  0.00    -0.292 OA
BRANCH  22  24
HETATM   24  C   LIG     1      27.697  24.894  20.524  1.00  0.00     0.260 C 
BRANCH  24  25
HETATM   25  O   LIG     1      27.342  25.417  19.246  1.00  0.00    -0.314 OA
BRANCH  25  26
HETATM   26  C   LIG     1      28.238  26.095  18.412  1.00  0.00     0.255 C 
HETATM   27  C   LIG     1      28.808  25.390  17.228  1.00  0.00     0.126 C 
HETATM   28  O   LIG     1      28.537  27.301  18.629  1.00  0.00    -0.266 OA
ENDBRANCH  25  26
ENDBRANCH  24  25
ENDBRANCH  22  24
ENDBRANCH  20  22
BRANCH  20  29
HETATM   29  O   LIG     1      25.058  23.980  20.084  1.00  0.00    -0.378 OA
HETATM   30  H   LIG     1      25.089  23.851  19.099  1.00  0.00     0.211 HD
ENDBRANCH  20  29
BRANCH  19  31
HETATM   31  O   LIG     1      24.497  21.639  19.097  1.00  0.00    -0.313 OA
BRANCH  31  32
HETATM   32  C   LIG     1      24.171  20.630  18.186  1.00  0.00     0.255 C 
HETATM   33  C   LIG     1      22.810  20.021  18.224  1.00  0.00     0.126 C 
HETATM   34  O   LIG     1      25.026  20.199  17.364  1.00  0.00    -0.266 OA
ENDBRANCH  31  32
ENDBRANCH  19  31
BRANCH  13  35
HETATM   35  O   LIG     1      26.591  23.520  25.611  1.00  0.00    -0.392 OA
HETATM   36  H   LIG     1      26.581  22.891  26.381  1.00  0.00     0.210 HD
ENDBRANCH  13  35
TORSDOF 8
ENDMDL
MODEL 16
REMARK VINA RESULT:      -3.4      2.938      7.120
REMARK  8 active torsions:
REMARK  status: ('A' for Active; 'I' for Inactive)
REMARK    1  A    between atoms: C_13  and  O_14 
REMARK    2  A    between atoms: C_20  and  O_21 
REMARK    3  A    between atoms: O_21  and  C_22 
REMARK    4  A    between atoms: C_25  and  C_27 
REMARK    5  A    between atoms: C_25  and  O_26 
REMARK    6  A    between atoms: C_27  and  C_28 
REMARK    7  A    between atoms: C_28  and  O_29 
REMARK    8  A    between atoms: O_29  and  C_30 
ROOT
HETATM    1  O   LIG     1      28.688  20.228  27.799  1.00  0.00    -0.289 OA
HETATM    2  C   LIG     1      28.244  20.778  26.757  1.00  0.00     0.172 C 
HETATM    3  C   LIG     1      29.127  21.584  25.902  1.00  0.00     0.052 C 
HETATM    4  C   LIG     1      28.600  22.300  24.902  1.00  0.00    -0.006 C 
HETATM    5  C   LIG     1      27.086  22.533  24.818  1.00  0.00     0.036 C 
HETATM    6  C   LIG     1      26.713  23.650  25.826  1.00  0.00     0.028 C 
HETATM    7  C   LIG     1      26.376  21.229  25.270  1.00  0.00    -0.061 C 
HETATM    8  C   LIG     1      25.181  20.691  24.496  1.00  0.00     0.036 C 
HETATM    9  C   LIG     1      25.424  20.669  22.958  1.00  0.00     0.013 C 
HETATM   10  C   LIG     1      26.606  21.573  22.529  1.00  0.00     0.035 C 
HETATM   11  C   LIG     1      26.585  22.910  23.362  1.00  0.00     0.147 C 
HETATM   12  F   LIG     1      25.251  23.271  23.535  1.00  0.00    -0.238 F 
HETATM   13  C   LIG     1      27.229  24.189  22.660  1.00  0.00     0.160 C 
HETATM   14  C   LIG     1      27.564  24.059  21.148  1.00  0.00     0.048 C 
HETATM   15  C   LIG     1      26.635  23.086  20.381  1.00  0.00     0.004 C 
HETATM   16  C   LIG     1      25.149  23.568  20.450  1.00  0.00     0.019 C 
HETATM   17  C   LIG     1      26.849  21.707  20.995  1.00  0.00     0.007 C 
HETATM   18  C   LIG     1      26.205  20.732  20.019  1.00  0.00     0.042 C 
HETATM   19  C   LIG     1      26.457  21.360  18.627  1.00  0.00     0.175 C 
HETATM   20  C   LIG     1      27.002  22.816  18.875  1.00  0.00     0.154 C 
HETATM   21  C   LIG     1      26.874  20.516  26.296  1.00  0.00     0.058 C 
ENDROOT
BRANCH  20  22
HETATM   22  C   LIG     1      28.518  22.898  18.615  1.00  0.00     0.188 C 
HETATM   23  O   LIG     1      29.262  22.010  19.006  1.00  0.00    -0.292 OA
BRANCH  22  24
HETATM   24  C   LIG     1      29.127  24.084  17.909  1.00  0.00     0.260 C 
BRANCH  24  25
HETATM   25  O   LIG     1      28.815  24.051  16.518  1.00  0.00    -0.314 OA
BRANCH  25  26
HETATM   26  C   LIG     1      29.080  25.108  15.640  1.00  0.00     0.255 C 
HETATM   27  C   LIG     1      29.650  26.376  16.179  1.00  0.00     0.126 C 
HETATM   28  O   LIG     1      28.881  24.986  14.401  1.00  0.00    -0.266 OA
ENDBRANCH  25  26
ENDBRANCH  24  25
ENDBRANCH  22  24
ENDBRANCH  20  22
BRANCH  20  29
HETATM   29  O   LIG     1      26.349  23.741  18.031  1.00  0.00    -0.378 OA
HETATM   30  H   LIG     1      25.580  23.273  17.612  1.00  0.00     0.211 HD
ENDBRANCH  20  29
BRANCH  19  31
HETATM   31  O   LIG     1      25.240  21.393  17.874  1.00  0.00    -0.313 OA
BRANCH  31  32
HETATM   32  C   LIG     1      24.330  20.332  17.833  1.00  0.00     0.255 C 
HETATM   33  C   LIG     1      22.963  20.518  18.399  1.00  0.00     0.126 C 
HETATM   34  O   LIG     1      24.665  19.210  17.365  1.00  0.00    -0.266 OA
ENDBRANCH  31  32
ENDBRANCH  19  31
BRANCH  13  35
HETATM   35  O   LIG     1      28.357  24.667  23.344  1.00  0.00    -0.392 OA
HETATM   36  H   LIG     1      28.055  25.408  23.934  1.00  0.00     0.210 HD
ENDBRANCH  13  35
TORSDOF 8
ENDMDL
MODEL 17
REMARK VINA RESULT:      -3.3      3.411      7.004
REMARK  8 active torsions:
REMARK  status: ('A' for Active; 'I' for Inactive)
REMARK    1  A    between atoms: C_13  and  O_14 
REMARK    2  A    between atoms: C_20  and  O_21 
REMARK    3  A    between atoms: O_21  and  C_22 
REMARK    4  A    between atoms: C_25  and  C_27 
REMARK    5  A    between atoms: C_25  and  O_26 
REMARK    6  A    between atoms: C_27  and  C_28 
REMARK    7  A    between atoms: C_28  and  O_29 
REMARK    8  A    between atoms: O_29  and  C_30 
ROOT
HETATM    1  O   LIG     1      27.959  18.872  27.866  1.00  0.00    -0.289 OA
HETATM    2  C   LIG     1      27.208  19.367  26.984  1.00  0.00     0.172 C 
HETATM    3  C   LIG     1      27.698  20.430  26.095  1.00  0.00     0.052 C 
HETATM    4  C   LIG     1      26.836  21.062  25.288  1.00  0.00    -0.006 C 
HETATM    5  C   LIG     1      25.323  20.910  25.486  1.00  0.00     0.036 C 
HETATM    6  C   LIG     1      24.896  21.819  26.666  1.00  0.00     0.028 C 
HETATM    7  C   LIG     1      25.038  19.439  25.892  1.00  0.00    -0.061 C 
HETATM    8  C   LIG     1      23.878  18.675  25.270  1.00  0.00     0.036 C 
HETATM    9  C   LIG     1      23.823  18.828  23.721  1.00  0.00     0.013 C 
HETATM   10  C   LIG     1      24.655  20.031  23.211  1.00  0.00     0.035 C 
HETATM   11  C   LIG     1      24.479  21.255  24.188  1.00  0.00     0.147 C 
HETATM   12  F   LIG     1      23.156  21.253  24.622  1.00  0.00    -0.238 F 
HETATM   13  C   LIG     1      24.659  22.702  23.545  1.00  0.00     0.160 C 
HETATM   14  C   LIG     1      24.721  22.772  21.994  1.00  0.00     0.048 C 
HETATM   15  C   LIG     1      23.919  21.655  21.283  1.00  0.00     0.004 C 
HETATM   16  C   LIG     1      22.401  21.740  21.654  1.00  0.00     0.019 C 
HETATM   17  C   LIG     1      24.563  20.334  21.685  1.00  0.00     0.007 C 
HETATM   18  C   LIG     1      23.993  19.302  20.722  1.00  0.00     0.042 C 
HETATM   19  C   LIG     1      23.820  20.074  19.391  1.00  0.00     0.175 C 
HETATM   20  C   LIG     1      24.045  21.599  19.715  1.00  0.00     0.154 C 
HETATM   21  C   LIG     1      25.876  18.802  26.730  1.00  0.00     0.058 C 
ENDROOT
BRANCH  20  22
HETATM   22  C   LIG     1      25.421  22.080  19.218  1.00  0.00     0.188 C 
HETATM   23  O   LIG     1      25.513  23.084  18.525  1.00  0.00    -0.292 OA
BRANCH  22  24
HETATM   24  C   LIG     1      26.680  21.313  19.538  1.00  0.00     0.260 C 
BRANCH  24  25
HETATM   25  O   LIG     1      26.902  20.293  18.566  1.00  0.00    -0.314 OA
BRANCH  25  26
HETATM   26  C   LIG     1      27.882  19.303  18.695  1.00  0.00     0.255 C 
HETATM   27  C   LIG     1      27.902  18.453  19.921  1.00  0.00     0.126 C 
HETATM   28  O   LIG     1      28.720  19.097  17.775  1.00  0.00    -0.266 OA
ENDBRANCH  25  26
ENDBRANCH  24  25
ENDBRANCH  22  24
ENDBRANCH  20  22
BRANCH  20  29
HETATM   29  O   LIG     1      23.045  22.388  19.107  1.00  0.00    -0.378 OA
HETATM   30  H   LIG     1      23.250  23.339  19.307  1.00  0.00     0.211 HD
ENDBRANCH  20  29
BRANCH  19  31
HETATM   31  O   LIG     1      22.510  19.854  18.860  1.00  0.00    -0.313 OA
BRANCH  31  32
HETATM   32  C   LIG     1      22.242  18.971  17.808  1.00  0.00     0.255 C 
HETATM   33  C   LIG     1      21.185  17.933  17.976  1.00  0.00     0.126 C 
HETATM   34  O   LIG     1      22.913  19.014  16.741  1.00  0.00    -0.266 OA
ENDBRANCH  31  32
ENDBRANCH  19  31
BRANCH  13  35
HETATM   35  O   LIG     1      25.752  23.398  24.083  1.00  0.00    -0.392 OA
HETATM   36  H   LIG     1      25.604  24.365  23.908  1.00  0.00     0.210 HD
ENDBRANCH  13  35
TORSDOF 8
ENDMDL
MODEL 18
REMARK VINA RESULT:      -3.1      3.243      7.297
REMARK  8 active torsions:
REMARK  status: ('A' for Active; 'I' for Inactive)
REMARK    1  A    between atoms: C_13  and  O_14 
REMARK    2  A    between atoms: C_20  and  O_21 
REMARK    3  A    between atoms: O_21  and  C_22 
REMARK    4  A    between atoms: C_25  and  C_27 
REMARK    5  A    between atoms: C_25  and  O_26 
REMARK    6  A    between atoms: C_27  and  C_28 
REMARK    7  A    between atoms: C_28  and  O_29 
REMARK    8  A    between atoms: O_29  and  C_30 
ROOT
HETATM    1  O   LIG     1      28.758  18.725  31.473  1.00  0.00    -0.289 OA
HETATM    2  C   LIG     1      28.277  19.431  30.547  1.00  0.00     0.172 C 
HETATM    3  C   LIG     1      29.149  19.998  29.509  1.00  0.00     0.052 C 
HETATM    4  C   LIG     1      28.647  20.884  28.640  1.00  0.00    -0.006 C 
HETATM    5  C   LIG     1      27.282  21.537  28.889  1.00  0.00     0.036 C 
HETATM    6  C   LIG     1      27.469  22.661  29.940  1.00  0.00     0.028 C 
HETATM    7  C   LIG     1      26.343  20.465  29.501  1.00  0.00    -0.061 C 
HETATM    8  C   LIG     1      24.907  20.326  29.016  1.00  0.00     0.036 C 
HETATM    9  C   LIG     1      24.799  20.315  27.462  1.00  0.00     0.013 C 
HETATM   10  C   LIG     1      26.070  20.871  26.772  1.00  0.00     0.035 C 
HETATM   11  C   LIG     1      26.611  22.115  27.573  1.00  0.00     0.147 C 
HETATM   12  F   LIG     1      25.505  22.827  28.030  1.00  0.00    -0.238 F 
HETATM   13  C   LIG     1      27.427  23.195  26.732  1.00  0.00     0.160 C 
HETATM   14  C   LIG     1      27.380  23.053  25.185  1.00  0.00     0.048 C 
HETATM   15  C   LIG     1      26.070  22.422  24.653  1.00  0.00     0.004 C 
HETATM   16  C   LIG     1      24.834  23.299  25.040  1.00  0.00     0.019 C 
HETATM   17  C   LIG     1      26.006  21.010  25.222  1.00  0.00     0.007 C 
HETATM   18  C   LIG     1      24.918  20.306  24.423  1.00  0.00     0.042 C 
HETATM   19  C   LIG     1      25.034  20.908  23.002  1.00  0.00     0.175 C 
HETATM   20  C   LIG     1      26.013  22.138  23.106  1.00  0.00     0.154 C 
HETATM   21  C   LIG     1      26.824  19.589  30.402  1.00  0.00     0.058 C 
ENDROOT
BRANCH  20  22
HETATM   22  C   LIG     1      27.396  21.803  22.518  1.00  0.00     0.188 C 
HETATM   23  O   LIG     1      27.870  20.683  22.648  1.00  0.00    -0.292 OA
BRANCH  22  24
HETATM   24  C   LIG     1      28.217  22.849  21.805  1.00  0.00     0.260 C 
BRANCH  24  25
HETATM   25  O   LIG     1      27.550  23.283  20.621  1.00  0.00    -0.314 OA
BRANCH  25  26
HETATM   26  C   LIG     1      27.695  24.565  20.079  1.00  0.00     0.255 C 
HETATM   27  C   LIG     1      26.480  25.316  19.650  1.00  0.00     0.126 C 
HETATM   28  O   LIG     1      28.832  25.103  19.984  1.00  0.00    -0.266 OA
ENDBRANCH  25  26
ENDBRANCH  24  25
ENDBRANCH  22  24
ENDBRANCH  20  22
BRANCH  20  29
HETATM   29  O   LIG     1      25.487  23.251  22.415  1.00  0.00    -0.378 OA
HETATM   30  H   LIG     1      25.716  24.064  22.938  1.00  0.00     0.211 HD
ENDBRANCH  20  29
BRANCH  19  31
HETATM   31  O   LIG     1      23.746  21.322  22.534  1.00  0.00    -0.313 OA
BRANCH  31  32
HETATM   32  C   LIG     1      23.235  20.975  21.278  1.00  0.00     0.255 C 
HETATM   33  C   LIG     1      22.850  22.053  20.323  1.00  0.00     0.126 C 
HETATM   34  O   LIG     1      23.056  19.767  20.964  1.00  0.00    -0.266 OA
ENDBRANCH  31  32
ENDBRANCH  19  31
BRANCH  13  35
HETATM   35  O   LIG     1      28.764  23.300  27.145  1.00  0.00    -0.392 OA
HETATM   36  H   LIG     1      29.153  24.096  26.694  1.00  0.00     0.210 HD
ENDBRANCH  13  35
TORSDOF 8
ENDMDL
MODEL 19
REMARK VINA RESULT:      -2.3      6.076     10.136
REMARK  8 active torsions:
REMARK  status: ('A' for Active; 'I' for Inactive)
REMARK    1  A    between atoms: C_13  and  O_14 
REMARK    2  A    between atoms: C_20  and  O_21 
REMARK    3  A    between atoms: O_21  and  C_22 
REMARK    4  A    between atoms: C_25  and  C_27 
REMARK    5  A    between atoms: C_25  and  O_26 
REMARK    6  A    between atoms: C_27  and  C_28 
REMARK    7  A    between atoms: C_28  and  O_29 
REMARK    8  A    between atoms: O_29  and  C_30 
ROOT
HETATM    1  O   LIG     1      26.929  25.819  36.636  1.00  0.00    -0.289 OA
HETATM    2  C   LIG     1      27.374  25.278  35.590  1.00  0.00     0.172 C 
HETATM    3  C   LIG     1      27.053  23.878  35.277  1.00  0.00     0.052 C 
HETATM    4  C   LIG     1      27.675  23.272  34.258  1.00  0.00    -0.006 C 
HETATM    5  C   LIG     1      28.915  23.903  33.611  1.00  0.00     0.036 C 
HETATM    6  C   LIG     1      30.132  23.627  34.530  1.00  0.00     0.028 C 
HETATM    7  C   LIG     1      28.698  25.439  33.558  1.00  0.00    -0.061 C 
HETATM    8  C   LIG     1      29.054  26.228  32.306  1.00  0.00     0.036 C 
HETATM    9  C   LIG     1      28.516  25.561  31.006  1.00  0.00     0.013 C 
HETATM   10  C   LIG     1      28.135  24.073  31.212  1.00  0.00     0.035 C 
HETATM   11  C   LIG     1      29.197  23.375  32.143  1.00  0.00     0.147 C 
HETATM   12  F   LIG     1      30.445  23.902  31.817  1.00  0.00    -0.238 F 
HETATM   13  C   LIG     1      29.390  21.806  31.939  1.00  0.00     0.160 C 
HETATM   14  C   LIG     1      28.721  21.179  30.684  1.00  0.00     0.048 C 
HETATM   15  C   LIG     1      28.604  22.151  29.485  1.00  0.00     0.004 C 
HETATM   16  C   LIG     1      30.018  22.633  29.020  1.00  0.00     0.019 C 
HETATM   17  C   LIG     1      27.699  23.291  29.937  1.00  0.00     0.007 C 
HETATM   18  C   LIG     1      27.324  24.033  28.661  1.00  0.00     0.042 C 
HETATM   19  C   LIG     1      27.231  22.924  27.585  1.00  0.00     0.175 C 
HETATM   20  C   LIG     1      27.824  21.614  28.228  1.00  0.00     0.154 C 
HETATM   21  C   LIG     1      28.105  26.068  34.589  1.00  0.00     0.058 C 
ENDROOT
BRANCH  20  22
HETATM   22  C   LIG     1      26.708  20.623  28.608  1.00  0.00     0.188 C 
HETATM   23  O   LIG     1      26.983  19.476  28.933  1.00  0.00    -0.292 OA
BRANCH  22  24
HETATM   24  C   LIG     1      25.255  21.023  28.555  1.00  0.00     0.260 C 
BRANCH  24  25
HETATM   25  O   LIG     1      24.588  20.341  27.495  1.00  0.00    -0.314 OA
BRANCH  25  26
HETATM   26  C   LIG     1      24.853  20.572  26.140  1.00  0.00     0.255 C 
HETATM   27  C   LIG     1      24.332  21.813  25.498  1.00  0.00     0.126 C 
HETATM   28  O   LIG     1      25.555  19.766  25.471  1.00  0.00    -0.266 OA
ENDBRANCH  25  26
ENDBRANCH  24  25
ENDBRANCH  22  24
ENDBRANCH  20  22
BRANCH  20  29
HETATM   29  O   LIG     1      28.707  20.976  27.329  1.00  0.00    -0.378 OA
HETATM   30  H   LIG     1      29.346  20.440  27.868  1.00  0.00     0.211 HD
ENDBRANCH  20  29
BRANCH  19  31
HETATM   31  O   LIG     1      27.974  23.302  26.422  1.00  0.00    -0.313 OA
BRANCH  31  32
HETATM   32  C   LIG     1      27.394  23.898  25.297  1.00  0.00     0.255 C 
HETATM   33  C   LIG     1      27.767  23.412  23.938  1.00  0.00     0.126 C 
HETATM   34  O   LIG     1      26.597  24.868  25.418  1.00  0.00    -0.266 OA
ENDBRANCH  31  32
ENDBRANCH  19  31
BRANCH  13  35
HETATM   35  O   LIG     1      29.025  21.067  33.075  1.00  0.00    -0.392 OA
HETATM   36  H   LIG     1      28.324  21.585  33.553  1.00  0.00     0.210 HD
ENDBRANCH  13  35
TORSDOF 8
ENDMDL
