REMARK  8 active torsions:
REMARK  status: ('A' for Active; 'I' for Inactive)
REMARK    1  A    between atoms: C_13  and  O_14 
REMARK    2  A    between atoms: C_20  and  O_21 
REMARK    3  A    between atoms: O_21  and  C_22 
REMARK    4  A    between atoms: C_25  and  C_27 
REMARK    5  A    between atoms: C_25  and  O_26 
REMARK    6  A    between atoms: C_27  and  C_28 
REMARK    7  A    between atoms: C_28  and  O_29 
REMARK    8  A    between atoms: O_29  and  C_30 
ROOT
HETATM    1  O   LIG     1      -6.638   0.848   2.825  1.00  0.00    -0.289 OA
HETATM    2  C   LIG     1      -5.622   0.711   2.094  1.00  0.00     0.172 C 
HETATM    3  C   LIG     1      -4.614   1.777   2.006  1.00  0.00     0.052 C 
HETATM    4  C   LIG     1      -3.638   1.686   1.094  1.00  0.00    -0.006 C 
HETATM    5  C   LIG     1      -3.722   0.660  -0.043  1.00  0.00     0.036 C 
HETATM    6  C   LIG     1      -4.689   1.212  -1.121  1.00  0.00     0.028 C 
HETATM    7  C   LIG     1      -4.343  -0.641   0.531  1.00  0.00    -0.061 C 
HETATM    8  C   LIG     1      -3.757  -2.000   0.176  1.00  0.00     0.036 C 
HETATM    9  C   LIG     1      -2.206  -2.037   0.311  1.00  0.00     0.013 C 
HETATM   10  C   LIG     1      -1.577  -0.621   0.345  1.00  0.00     0.035 C 
HETATM   11  C   LIG     1      -2.314   0.315  -0.686  1.00  0.00     0.147 C 
HETATM   12  F   LIG     1      -2.621  -0.458  -1.803  1.00  0.00    -0.238 F 
HETATM   13  C   LIG     1      -1.455   1.515  -1.288  1.00  0.00     0.160 C 
HETATM   14  C   LIG     1       0.074   1.485  -1.011  1.00  0.00     0.048 C 
HETATM   15  C   LIG     1       0.656   0.058  -0.860  1.00  0.00     0.004 C 
HETATM   16  C   LIG     1       0.442  -0.770  -2.170  1.00  0.00     0.019 C 
HETATM   17  C   LIG     1      -0.020  -0.560   0.358  1.00  0.00     0.007 C 
HETATM   18  C   LIG     1       0.803  -1.798   0.686  1.00  0.00     0.042 C 
HETATM   19  C   LIG     1       2.255  -1.401   0.325  1.00  0.00     0.175 C 
HETATM   20  C   LIG     1       2.174  -0.035  -0.455  1.00  0.00     0.154 C 
HETATM   21  C   LIG     1      -5.348  -0.567   1.422  1.00  0.00     0.058 C 
ENDROOT
BRANCH  20  22
HETATM   22  C   LIG     1       2.619   1.143   0.431  1.00  0.00     0.188 C 
HETATM   23  O   LIG     1       2.498   1.084   1.647  1.00  0.00    -0.292 OA
BRANCH  22  24
HETATM   24  C   LIG     1       3.178   2.408  -0.172  1.00  0.00     0.260 C 
BRANCH  24  25
HETATM   25  O   LIG     1       4.579   2.502   0.078  1.00  0.00    -0.314 OA
BRANCH  25  26
HETATM   26  C   LIG     1       5.120   2.899   1.306  1.00  0.00     0.255 C 
HETATM   27  C   LIG     1       6.601   2.912   1.479  1.00  0.00     0.126 C 
HETATM   28  O   LIG     1       4.374   3.280   2.249  1.00  0.00    -0.266 OA
ENDBRANCH  25  26
ENDBRANCH  24  25
ENDBRANCH  22  24
ENDBRANCH  20  22
BRANCH  20  29
HETATM   29  O   LIG     1       2.994  -0.070  -1.604  1.00  0.00    -0.378 OA
HETATM   30  H   LIG     1       3.930  -0.205  -1.300  1.00  0.00     0.211 HD
ENDBRANCH  20  29
BRANCH  19  31
HETATM   31  O   LIG     1       2.857  -2.415  -0.486  1.00  0.00    -0.313 OA
BRANCH  31  32
HETATM   32  C   LIG     1       3.176  -3.692  -0.012  1.00  0.00     0.255 C 
HETATM   33  C   LIG     1       3.736  -4.703  -0.954  1.00  0.00     0.126 C 
HETATM   34  O   LIG     1       2.955  -4.010   1.188  1.00  0.00    -0.266 OA
ENDBRANCH  31  32
ENDBRANCH  19  31
BRANCH  13  35
HETATM   35  O   LIG     1      -1.964   2.773  -0.931  1.00  0.00    -0.392 OA
HETATM   36  H   LIG     1      -1.586   3.438  -1.566  1.00  0.00     0.210 HD
ENDBRANCH  13  35
TORSDOF 8
