REMARK  1 active torsions:
REMARK  status: ('A' for Active; 'I' for Inactive)
REMARK    1  A    between atoms: C_18  and  O_21 
ROOT
HETATM    1  O   LIG     1      -6.268  -0.532  -0.243  1.00  0.00    -0.293 OA
HETATM    2  C   LIG     1      -5.061  -0.336   0.060  1.00  0.00     0.149 C 
HETATM    3  C   LIG     1      -4.480  -1.012   1.270  1.00  0.00     0.084 C 
HETATM    4  C   LIG     1      -2.950  -1.088   1.182  1.00  0.00     0.017 C 
HETATM    5  C   LIG     1      -2.360   0.303   0.854  1.00  0.00     0.019 C 
HETATM    6  C   LIG     1      -2.970   0.846  -0.440  1.00  0.00    -0.072 C 
HETATM    7  C   LIG     1      -2.104   1.678  -1.373  1.00  0.00     0.035 C 
HETATM    8  C   LIG     1      -0.754   0.989  -1.709  1.00  0.00     0.010 C 
HETATM    9  C   LIG     1      -0.371  -0.105  -0.685  1.00  0.00    -0.005 C 
HETATM   10  C   LIG     1      -0.809   0.323   0.746  1.00  0.00    -0.002 C 
HETATM   11  C   LIG     1      -0.042  -0.453   1.841  1.00  0.00     0.006 C 
HETATM   12  C   LIG     1       1.491  -0.187   1.778  1.00  0.00     0.014 C 
HETATM   13  C   LIG     1       2.041   0.055   0.324  1.00  0.00     0.003 C 
HETATM   14  C   LIG     1       2.209   1.593   0.074  1.00  0.00     0.020 C 
HETATM   15  C   LIG     1       1.101  -0.599  -0.704  1.00  0.00     0.002 C 
HETATM   16  C   LIG     1       1.881  -0.642  -2.014  1.00  0.00     0.010 C 
HETATM   17  C   LIG     1       3.352  -0.777  -1.575  1.00  0.00     0.052 C 
HETATM   18  C   LIG     1       3.373  -0.689  -0.022  1.00  0.00     0.128 C 
HETATM   19  C   LIG     1       4.582   0.013   0.470  1.00  0.00    -0.078 C 
HETATM   20  C   LIG     1       5.568   0.581   0.870  1.00  0.00     0.015 C 
HETATM   21  C   LIG     1      -4.247   0.580  -0.758  1.00  0.00     0.053 C 
ENDROOT
BRANCH  18  22
HETATM   22  O   LIG     1       3.352  -1.992   0.519  1.00  0.00    -0.377 OA
HETATM   23  H   LIG     1       4.187  -2.457   0.244  1.00  0.00     0.211 HD
ENDBRANCH  18  22
TORSDOF 1
