REMARK  0 active torsions:
REMARK  status: ('A' for Active; 'I' for Inactive)
ROOT
HETATM    1  C   LIG     1       0.424   0.328  -0.025  1.00  0.00     0.150 A 
HETATM    2  C   LIG     1       0.327  -1.019  -0.010  1.00  0.00     0.184 A 
HETATM    3  N   LIG     1       1.540  -1.592  -0.071  1.00  0.00    -0.222 NA
HETATM    4  C   LIG     1       2.367  -0.511  -0.123  1.00  0.00     0.210 A 
HETATM    5  N   LIG     1       1.713   0.678  -0.097  1.00  0.00    -0.343 N 
HETATM    6  N   LIG     1      -0.867  -1.656   0.058  1.00  0.00    -0.222 NA
HETATM    7  C   LIG     1      -2.003  -0.894   0.114  1.00  0.00     0.212 A 
HETATM    8  N   LIG     1      -1.926   0.477   0.100  1.00  0.00    -0.316 N 
HETATM    9  C   LIG     1      -0.718   1.114   0.031  1.00  0.00     0.277 A 
HETATM   10  O   LIG     1      -0.648   2.372   0.018  1.00  0.00    -0.266 OA
HETATM   11  H   LIG     1       2.123   1.638  -0.126  1.00  0.00     0.167 HD
HETATM   12  H   LIG     1      -2.808   1.037   0.143  1.00  0.00     0.170 HD
ENDROOT
TORSDOF 0
