MODEL 1
REMARK VINA RESULT:      -5.8      0.000      0.000
REMARK  0 active torsions:
REMARK  status: ('A' for Active; 'I' for Inactive)
ROOT
HETATM    1  C   LIG     1      17.014  36.929  24.059  1.00  0.00     0.150 A 
HETATM    2  C   LIG     1      17.121  35.589  23.927  1.00  0.00     0.184 A 
HETATM    3  N   LIG     1      16.853  35.204  22.669  1.00  0.00    -0.222 NA
HETATM    4  C   LIG     1      16.580  36.390  22.057  1.00  0.00     0.210 A 
HETATM    5  N   LIG     1      16.670  37.463  22.882  1.00  0.00    -0.343 N 
HETATM    6  N   LIG     1      17.459  34.786  24.965  1.00  0.00    -0.222 NA
HETATM    7  C   LIG     1      17.697  35.368  26.181  1.00  0.00     0.212 A 
HETATM    8  N   LIG     1      17.594  36.729  26.336  1.00  0.00    -0.316 N 
HETATM    9  C   LIG     1      17.252  37.534  25.285  1.00  0.00     0.277 A 
HETATM   10  O   LIG     1      17.158  38.782  25.428  1.00  0.00    -0.266 OA
HETATM   11  H   LIG     1      16.508  38.469  22.650  1.00  0.00     0.167 HD
HETATM   12  H   LIG     1      17.780  37.150  27.275  1.00  0.00     0.170 HD
ENDROOT
TORSDOF 0
ENDMDL
MODEL 2
REMARK VINA RESULT:      -5.7      0.996      2.911
REMARK  0 active torsions:
REMARK  status: ('A' for Active; 'I' for Inactive)
ROOT
HETATM    1  C   LIG     1      17.331  36.955  24.996  1.00  0.00     0.150 A 
HETATM    2  C   LIG     1      17.473  35.616  24.886  1.00  0.00     0.184 A 
HETATM    3  N   LIG     1      17.958  35.087  26.021  1.00  0.00    -0.222 NA
HETATM    4  C   LIG     1      18.098  36.185  26.815  1.00  0.00     0.210 A 
HETATM    5  N   LIG     1      17.722  37.343  26.215  1.00  0.00    -0.343 N 
HETATM    6  N   LIG     1      17.152  34.947  23.753  1.00  0.00    -0.222 NA
HETATM    7  C   LIG     1      16.668  35.666  22.693  1.00  0.00     0.212 A 
HETATM    8  N   LIG     1      16.516  37.028  22.785  1.00  0.00    -0.316 N 
HETATM    9  C   LIG     1      16.842  37.698  23.931  1.00  0.00     0.277 A 
HETATM   10  O   LIG     1      16.702  38.947  24.015  1.00  0.00    -0.266 OA
HETATM   11  H   LIG     1      17.736  38.307  26.614  1.00  0.00     0.167 HD
HETATM   12  H   LIG     1      16.144  37.555  21.962  1.00  0.00     0.170 HD
ENDROOT
TORSDOF 0
ENDMDL
MODEL 3
REMARK VINA RESULT:      -5.7      1.551      2.368
REMARK  0 active torsions:
REMARK  status: ('A' for Active; 'I' for Inactive)
ROOT
HETATM    1  C   LIG     1      17.144  36.047  24.056  1.00  0.00     0.150 A 
HETATM    2  C   LIG     1      16.856  37.282  23.592  1.00  0.00     0.184 A 
HETATM    3  N   LIG     1      16.526  37.245  22.290  1.00  0.00    -0.222 NA
HETATM    4  C   LIG     1      16.632  35.918  22.004  1.00  0.00     0.210 A 
HETATM    5  N   LIG     1      17.010  35.159  23.065  1.00  0.00    -0.343 N 
HETATM    6  N   LIG     1      16.911  38.381  24.382  1.00  0.00    -0.222 NA
HETATM    7  C   LIG     1      17.271  38.217  25.693  1.00  0.00     0.212 A 
HETATM    8  N   LIG     1      17.568  36.970  26.184  1.00  0.00    -0.316 N 
HETATM    9  C   LIG     1      17.511  35.864  25.382  1.00  0.00     0.277 A 
HETATM   10  O   LIG     1      17.783  34.720  25.833  1.00  0.00    -0.266 OA
HETATM   11  H   LIG     1      17.158  34.126  23.096  1.00  0.00     0.167 HD
HETATM   12  H   LIG     1      17.841  36.870  27.189  1.00  0.00     0.170 HD
ENDROOT
TORSDOF 0
ENDMDL
MODEL 4
REMARK VINA RESULT:      -5.5      2.942      4.002
REMARK  0 active torsions:
REMARK  status: ('A' for Active; 'I' for Inactive)
ROOT
HETATM    1  C   LIG     1      18.063  38.562  21.409  1.00  0.00     0.150 A 
HETATM    2  C   LIG     1      18.365  37.546  20.573  1.00  0.00     0.184 A 
HETATM    3  N   LIG     1      19.372  37.880  19.749  1.00  0.00    -0.222 NA
HETATM    4  C   LIG     1      19.654  39.153  20.142  1.00  0.00     0.210 A 
HETATM    5  N   LIG     1      18.869  39.599  21.156  1.00  0.00    -0.343 N 
HETATM    6  N   LIG     1      17.704  36.364  20.604  1.00  0.00    -0.222 NA
HETATM    7  C   LIG     1      16.699  36.210  21.521  1.00  0.00     0.212 A 
HETATM    8  N   LIG     1      16.376  37.231  22.381  1.00  0.00    -0.316 N 
HETATM    9  C   LIG     1      17.047  38.422  22.344  1.00  0.00     0.277 A 
HETATM   10  O   LIG     1      16.751  39.359  23.133  1.00  0.00    -0.266 OA
HETATM   11  H   LIG     1      18.893  40.531  21.625  1.00  0.00     0.167 HD
HETATM   12  H   LIG     1      15.604  37.090  23.072  1.00  0.00     0.170 HD
ENDROOT
TORSDOF 0
ENDMDL
MODEL 5
REMARK VINA RESULT:      -5.3      1.867      3.743
REMARK  0 active torsions:
REMARK  status: ('A' for Active; 'I' for Inactive)
ROOT
HETATM    1  C   LIG     1      17.201  36.250  24.198  1.00  0.00     0.150 A 
HETATM    2  C   LIG     1      17.247  37.474  24.769  1.00  0.00     0.184 A 
HETATM    3  N   LIG     1      17.638  37.394  26.051  1.00  0.00    -0.222 NA
HETATM    4  C   LIG     1      17.822  36.055  26.214  1.00  0.00     0.210 A 
HETATM    5  N   LIG     1      17.562  35.329  25.097  1.00  0.00    -0.343 N 
HETATM    6  N   LIG     1      16.928  38.601  24.088  1.00  0.00    -0.222 NA
HETATM    7  C   LIG     1      16.550  38.478  22.777  1.00  0.00     0.212 A 
HETATM    8  N   LIG     1      16.497  37.244  22.178  1.00  0.00    -0.316 N 
HETATM    9  C   LIG     1      16.819  36.110  22.871  1.00  0.00     0.277 A 
HETATM   10  O   LIG     1      16.770  34.977  22.321  1.00  0.00    -0.266 OA
HETATM   11  H   LIG     1      17.630  34.294  24.972  1.00  0.00     0.167 HD
HETATM   12  H   LIG     1      16.204  37.176  21.177  1.00  0.00     0.170 HD
ENDROOT
TORSDOF 0
ENDMDL
MODEL 6
REMARK VINA RESULT:      -5.3      2.705      3.448
REMARK  0 active torsions:
REMARK  status: ('A' for Active; 'I' for Inactive)
ROOT
HETATM    1  C   LIG     1      16.663  37.017  22.091  1.00  0.00     0.150 A 
HETATM    2  C   LIG     1      17.568  37.090  21.091  1.00  0.00     0.184 A 
HETATM    3  N   LIG     1      17.530  35.989  20.324  1.00  0.00    -0.222 NA
HETATM    4  C   LIG     1      16.552  35.254  20.922  1.00  0.00     0.210 A 
HETATM    5  N   LIG     1      16.003  35.857  22.007  1.00  0.00    -0.343 N 
HETATM    6  N   LIG     1      18.383  38.161  20.931  1.00  0.00    -0.222 NA
HETATM    7  C   LIG     1      18.272  39.195  21.821  1.00  0.00     0.212 A 
HETATM    8  N   LIG     1      17.359  39.141  22.845  1.00  0.00    -0.316 N 
HETATM    9  C   LIG     1      16.539  38.057  23.002  1.00  0.00     0.277 A 
HETATM   10  O   LIG     1      15.702  38.008  23.942  1.00  0.00    -0.266 OA
HETATM   11  H   LIG     1      15.244  35.497  22.627  1.00  0.00     0.167 HD
HETATM   12  H   LIG     1      17.293  39.943  23.513  1.00  0.00     0.170 HD
ENDROOT
TORSDOF 0
ENDMDL
MODEL 7
REMARK VINA RESULT:      -5.3      2.017      2.766
REMARK  0 active torsions:
REMARK  status: ('A' for Active; 'I' for Inactive)
ROOT
HETATM    1  C   LIG     1      16.920  36.832  23.142  1.00  0.00     0.150 A 
HETATM    2  C   LIG     1      17.095  37.551  24.271  1.00  0.00     0.184 A 
HETATM    3  N   LIG     1      16.961  38.866  24.033  1.00  0.00    -0.222 NA
HETATM    4  C   LIG     1      16.696  38.891  22.697  1.00  0.00     0.210 A 
HETATM    5  N   LIG     1      16.665  37.661  22.124  1.00  0.00    -0.343 N 
HETATM    6  N   LIG     1      17.369  36.968  25.463  1.00  0.00    -0.222 NA
HETATM    7  C   LIG     1      17.467  35.603  25.507  1.00  0.00     0.212 A 
HETATM    8  N   LIG     1      17.293  34.853  24.370  1.00  0.00    -0.316 N 
HETATM    9  C   LIG     1      17.016  35.448  23.170  1.00  0.00     0.277 A 
HETATM   10  O   LIG     1      16.856  34.759  22.126  1.00  0.00    -0.266 OA
HETATM   11  H   LIG     1      16.483  37.423  21.123  1.00  0.00     0.167 HD
HETATM   12  H   LIG     1      17.373  33.813  24.429  1.00  0.00     0.170 HD
ENDROOT
TORSDOF 0
ENDMDL
MODEL 8
REMARK VINA RESULT:      -5.3      9.097     10.652
REMARK  0 active torsions:
REMARK  status: ('A' for Active; 'I' for Inactive)
ROOT
HETATM    1  C   LIG     1      14.397  31.024  15.459  1.00  0.00     0.150 A 
HETATM    2  C   LIG     1      15.400  31.829  15.048  1.00  0.00     0.184 A 
HETATM    3  N   LIG     1      16.023  31.316  13.974  1.00  0.00    -0.222 NA
HETATM    4  C   LIG     1      15.334  30.160  13.767  1.00  0.00     0.210 A 
HETATM    5  N   LIG     1      14.333  29.953  14.660  1.00  0.00    -0.343 N 
HETATM    6  N   LIG     1      15.697  32.991  15.677  1.00  0.00    -0.222 NA
HETATM    7  C   LIG     1      14.943  33.348  16.763  1.00  0.00     0.212 A 
HETATM    8  N   LIG     1      13.918  32.544  17.197  1.00  0.00    -0.316 N 
HETATM    9  C   LIG     1      13.624  31.372  16.557  1.00  0.00     0.277 A 
HETATM   10  O   LIG     1      12.683  30.634  16.956  1.00  0.00    -0.266 OA
HETATM   11  H   LIG     1      13.670  29.147  14.708  1.00  0.00     0.167 HD
HETATM   12  H   LIG     1      13.357  32.838  18.029  1.00  0.00     0.170 HD
ENDROOT
TORSDOF 0
ENDMDL
MODEL 9
REMARK VINA RESULT:      -5.3      3.152      4.727
REMARK  0 active torsions:
REMARK  status: ('A' for Active; 'I' for Inactive)
ROOT
HETATM    1  C   LIG     1      17.342  37.512  21.673  1.00  0.00     0.150 A 
HETATM    2  C   LIG     1      17.624  38.698  22.255  1.00  0.00     0.184 A 
HETATM    3  N   LIG     1      16.861  38.896  23.343  1.00  0.00    -0.222 NA
HETATM    4  C   LIG     1      16.108  37.761  23.377  1.00  0.00     0.210 A 
HETATM    5  N   LIG     1      16.380  36.896  22.368  1.00  0.00    -0.343 N 
HETATM    6  N   LIG     1      18.564  39.539  21.762  1.00  0.00    -0.222 NA
HETATM    7  C   LIG     1      19.243  39.159  20.635  1.00  0.00     0.212 A 
HETATM    8  N   LIG     1      18.972  37.958  20.028  1.00  0.00    -0.316 N 
HETATM    9  C   LIG     1      18.021  37.113  20.531  1.00  0.00     0.277 A 
HETATM   10  O   LIG     1      17.773  36.011  19.973  1.00  0.00    -0.266 OA
HETATM   11  H   LIG     1      15.939  35.967  22.181  1.00  0.00     0.167 HD
HETATM   12  H   LIG     1      19.503  37.691  19.168  1.00  0.00     0.170 HD
ENDROOT
TORSDOF 0
ENDMDL
MODEL 10
REMARK VINA RESULT:      -5.2      6.728      8.545
REMARK  0 active torsions:
REMARK  status: ('A' for Active; 'I' for Inactive)
ROOT
HETATM    1  C   LIG     1      15.078  32.937  18.090  1.00  0.00     0.150 A 
HETATM    2  C   LIG     1      14.464  31.792  18.459  1.00  0.00     0.184 A 
HETATM    3  N   LIG     1      14.477  31.644  19.794  1.00  0.00    -0.222 NA
HETATM    4  C   LIG     1      15.133  32.765  20.201  1.00  0.00     0.210 A 
HETATM    5  N   LIG     1      15.514  33.576  19.181  1.00  0.00    -0.343 N 
HETATM    6  N   LIG     1      13.923  30.939  17.555  1.00  0.00    -0.222 NA
HETATM    7  C   LIG     1      14.010  31.266  16.228  1.00  0.00     0.212 A 
HETATM    8  N   LIG     1      14.630  32.425  15.833  1.00  0.00    -0.316 N 
HETATM    9  C   LIG     1      15.174  33.281  16.750  1.00  0.00     0.277 A 
HETATM   10  O   LIG     1      15.743  34.345  16.386  1.00  0.00    -0.266 OA
HETATM   11  H   LIG     1      16.026  34.484  19.239  1.00  0.00     0.167 HD
HETATM   12  H   LIG     1      14.684  32.652  14.813  1.00  0.00     0.170 HD
ENDROOT
TORSDOF 0
ENDMDL
MODEL 11
REMARK VINA RESULT:      -5.2      8.703     10.327
REMARK  0 active torsions:
REMARK  status: ('A' for Active; 'I' for Inactive)
ROOT
HETATM    1  C   LIG     1      14.462  32.186  16.378  1.00  0.00     0.150 A 
HETATM    2  C   LIG     1      15.520  32.581  15.638  1.00  0.00     0.184 A 
HETATM    3  N   LIG     1      15.971  33.781  16.041  1.00  0.00    -0.222 NA
HETATM    4  C   LIG     1      15.122  34.079  17.063  1.00  0.00     0.210 A 
HETATM    5  N   LIG     1      14.187  33.122  17.293  1.00  0.00    -0.343 N 
HETATM    6  N   LIG     1      16.020  31.825  14.631  1.00  0.00    -0.222 NA
HETATM    7  C   LIG     1      15.421  30.622  14.368  1.00  0.00     0.212 A 
HETATM    8  N   LIG     1      14.344  30.201  15.109  1.00  0.00    -0.316 N 
HETATM    9  C   LIG     1      13.844  30.969  16.124  1.00  0.00     0.277 A 
HETATM   10  O   LIG     1      12.856  30.583  16.803  1.00  0.00    -0.266 OA
HETATM   11  H   LIG     1      13.433  33.120  18.015  1.00  0.00     0.167 HD
HETATM   12  H   LIG     1      13.904  29.279  14.889  1.00  0.00     0.170 HD
ENDROOT
TORSDOF 0
ENDMDL
MODEL 12
REMARK VINA RESULT:      -5.2      3.546      4.816
REMARK  0 active torsions:
REMARK  status: ('A' for Active; 'I' for Inactive)
ROOT
HETATM    1  C   LIG     1      18.370  37.590  20.423  1.00  0.00     0.150 A 
HETATM    2  C   LIG     1      18.568  38.813  20.961  1.00  0.00     0.184 A 
HETATM    3  N   LIG     1      19.465  39.515  20.250  1.00  0.00    -0.222 NA
HETATM    4  C   LIG     1      19.791  38.643  19.256  1.00  0.00     0.210 A 
HETATM    5  N   LIG     1      19.138  37.456  19.335  1.00  0.00    -0.343 N 
HETATM    6  N   LIG     1      17.919  39.224  22.077  1.00  0.00    -0.222 NA
HETATM    7  C   LIG     1      17.035  38.359  22.665  1.00  0.00     0.212 A 
HETATM    8  N   LIG     1      16.819  37.112  22.133  1.00  0.00    -0.316 N 
HETATM    9  C   LIG     1      17.478  36.703  21.007  1.00  0.00     0.277 A 
HETATM   10  O   LIG     1      17.280  35.558  20.519  1.00  0.00    -0.266 OA
HETATM   11  H   LIG     1      19.218  36.634  18.696  1.00  0.00     0.167 HD
HETATM   12  H   LIG     1      16.139  36.469  22.600  1.00  0.00     0.170 HD
ENDROOT
TORSDOF 0
ENDMDL
MODEL 13
REMARK VINA RESULT:      -5.2      3.355      4.286
REMARK  0 active torsions:
REMARK  status: ('A' for Active; 'I' for Inactive)
ROOT
HETATM    1  C   LIG     1      17.238  37.221  21.585  1.00  0.00     0.150 A 
HETATM    2  C   LIG     1      16.041  37.106  22.200  1.00  0.00     0.184 A 
HETATM    3  N   LIG     1      15.902  38.029  23.165  1.00  0.00    -0.222 NA
HETATM    4  C   LIG     1      17.084  38.703  23.091  1.00  0.00     0.210 A 
HETATM    5  N   LIG     1      17.922  38.231  22.134  1.00  0.00    -0.343 N 
HETATM    6  N   LIG     1      15.137  36.160  21.847  1.00  0.00    -0.222 NA
HETATM    7  C   LIG     1      15.462  35.302  20.831  1.00  0.00     0.212 A 
HETATM    8  N   LIG     1      16.674  35.403  20.193  1.00  0.00    -0.316 N 
HETATM    9  C   LIG     1      17.583  36.359  20.553  1.00  0.00     0.277 A 
HETATM   10  O   LIG     1      18.694  36.450  19.968  1.00  0.00    -0.266 OA
HETATM   11  H   LIG     1      18.876  38.577  21.887  1.00  0.00     0.167 HD
HETATM   12  H   LIG     1      16.899  34.735  19.420  1.00  0.00     0.170 HD
ENDROOT
TORSDOF 0
ENDMDL
MODEL 14
REMARK VINA RESULT:      -5.0      8.358      9.515
REMARK  0 active torsions:
REMARK  status: ('A' for Active; 'I' for Inactive)
ROOT
HETATM    1  C   LIG     1      15.743  32.905  16.078  1.00  0.00     0.150 A 
HETATM    2  C   LIG     1      15.380  31.836  15.337  1.00  0.00     0.184 A 
HETATM    3  N   LIG     1      16.189  31.686  14.275  1.00  0.00    -0.222 NA
HETATM    4  C   LIG     1      17.055  32.726  14.424  1.00  0.00     0.210 A 
HETATM    5  N   LIG     1      16.807  33.490  15.518  1.00  0.00    -0.343 N 
HETATM    6  N   LIG     1      14.326  31.051  15.669  1.00  0.00    -0.222 NA
HETATM    7  C   LIG     1      13.617  31.366  16.798  1.00  0.00     0.212 A 
HETATM    8  N   LIG     1      13.970  32.449  17.565  1.00  0.00    -0.316 N 
HETATM    9  C   LIG     1      15.034  33.237  17.224  1.00  0.00     0.277 A 
HETATM   10  O   LIG     1      15.358  34.230  17.928  1.00  0.00    -0.266 OA
HETATM   11  H   LIG     1      17.328  34.335  15.844  1.00  0.00     0.167 HD
HETATM   12  H   LIG     1      13.413  32.669  18.422  1.00  0.00     0.170 HD
ENDROOT
TORSDOF 0
ENDMDL
MODEL 15
REMARK VINA RESULT:      -4.9      8.696     10.263
REMARK  0 active torsions:
REMARK  status: ('A' for Active; 'I' for Inactive)
ROOT
HETATM    1  C   LIG     1      15.467  31.952  15.094  1.00  0.00     0.150 A 
HETATM    2  C   LIG     1      14.571  31.025  15.498  1.00  0.00     0.184 A 
HETATM    3  N   LIG     1      14.365  30.103  14.544  1.00  0.00    -0.222 NA
HETATM    4  C   LIG     1      15.188  30.532  13.547  1.00  0.00     0.210 A 
HETATM    5  N   LIG     1      15.875  31.662  13.854  1.00  0.00    -0.343 N 
HETATM    6  N   LIG     1      13.988  31.070  16.720  1.00  0.00    -0.222 NA
HETATM    7  C   LIG     1      14.328  32.095  17.562  1.00  0.00     0.212 A 
HETATM    8  N   LIG     1      15.237  33.047  17.170  1.00  0.00    -0.316 N 
HETATM    9  C   LIG     1      15.822  32.997  15.935  1.00  0.00     0.277 A 
HETATM   10  O   LIG     1      16.655  33.871  15.576  1.00  0.00    -0.266 OA
HETATM   11  H   LIG     1      16.561  32.179  13.260  1.00  0.00     0.167 HD
HETATM   12  H   LIG     1      15.480  33.821  17.830  1.00  0.00     0.170 HD
ENDROOT
TORSDOF 0
ENDMDL
MODEL 16
REMARK VINA RESULT:      -4.9      9.734     11.052
REMARK  0 active torsions:
REMARK  status: ('A' for Active; 'I' for Inactive)
ROOT
HETATM    1  C   LIG     1      16.713  32.722  13.806  1.00  0.00     0.150 A 
HETATM    2  C   LIG     1      16.885  33.759  14.655  1.00  0.00     0.184 A 
HETATM    3  N   LIG     1      17.711  34.680  14.132  1.00  0.00    -0.222 NA
HETATM    4  C   LIG     1      18.022  34.134  12.923  1.00  0.00     0.210 A 
HETATM    5  N   LIG     1      17.427  32.936  12.696  1.00  0.00    -0.343 N 
HETATM    6  N   LIG     1      16.279  33.810  15.865  1.00  0.00    -0.222 NA
HETATM    7  C   LIG     1      15.466  32.768  16.224  1.00  0.00     0.212 A 
HETATM    8  N   LIG     1      15.278  31.704  15.376  1.00  0.00    -0.316 N 
HETATM    9  C   LIG     1      15.893  31.659  14.156  1.00  0.00     0.277 A 
HETATM   10  O   LIG     1      15.720  30.682  13.379  1.00  0.00    -0.266 OA
HETATM   11  H   LIG     1      17.509  32.327  11.851  1.00  0.00     0.167 HD
HETATM   12  H   LIG     1      14.653  30.920  15.674  1.00  0.00     0.170 HD
ENDROOT
TORSDOF 0
ENDMDL
MODEL 17
REMARK VINA RESULT:      -4.8      8.755      9.819
REMARK  0 active torsions:
REMARK  status: ('A' for Active; 'I' for Inactive)
ROOT
HETATM    1  C   LIG     1      14.422  32.276  16.611  1.00  0.00     0.150 A 
HETATM    2  C   LIG     1      14.522  31.374  15.611  1.00  0.00     0.184 A 
HETATM    3  N   LIG     1      13.482  30.525  15.619  1.00  0.00    -0.222 NA
HETATM    4  C   LIG     1      12.755  30.971  16.681  1.00  0.00     0.210 A 
HETATM    5  N   LIG     1      13.306  32.041  17.309  1.00  0.00    -0.343 N 
HETATM    6  N   LIG     1      15.561  31.374  14.740  1.00  0.00    -0.222 NA
HETATM    7  C   LIG     1      16.532  32.326  14.894  1.00  0.00     0.212 A 
HETATM    8  N   LIG     1      16.449  33.252  15.905  1.00  0.00    -0.316 N 
HETATM    9  C   LIG     1      15.399  33.247  16.780  1.00  0.00     0.277 A 
HETATM   10  O   LIG     1      15.323  34.097  17.708  1.00  0.00    -0.266 OA
HETATM   11  H   LIG     1      12.940  32.557  18.140  1.00  0.00     0.167 HD
HETATM   12  H   LIG     1      17.204  33.969  16.002  1.00  0.00     0.170 HD
ENDROOT
TORSDOF 0
ENDMDL
MODEL 18
REMARK VINA RESULT:      -4.8      2.215      2.786
REMARK  0 active torsions:
REMARK  status: ('A' for Active; 'I' for Inactive)
ROOT
HETATM    1  C   LIG     1      17.251  36.994  21.857  1.00  0.00     0.150 A 
HETATM    2  C   LIG     1      16.918  36.278  22.952  1.00  0.00     0.184 A 
HETATM    3  N   LIG     1      16.565  35.025  22.621  1.00  0.00    -0.222 NA
HETATM    4  C   LIG     1      16.706  35.033  21.267  1.00  0.00     0.210 A 
HETATM    5  N   LIG     1      17.125  36.225  20.769  1.00  0.00    -0.343 N 
HETATM    6  N   LIG     1      16.953  36.807  24.199  1.00  0.00    -0.222 NA
HETATM    7  C   LIG     1      17.342  38.112  24.335  1.00  0.00     0.212 A 
HETATM    8  N   LIG     1      17.685  38.858  23.234  1.00  0.00    -0.316 N 
HETATM    9  C   LIG     1      17.647  38.318  21.979  1.00  0.00     0.277 A 
HETATM   10  O   LIG     1      17.962  39.003  20.969  1.00  0.00    -0.266 OA
HETATM   11  H   LIG     1      17.305  36.478  19.772  1.00  0.00     0.167 HD
HETATM   12  H   LIG     1      17.978  39.853  23.365  1.00  0.00     0.170 HD
ENDROOT
TORSDOF 0
ENDMDL
MODEL 19
REMARK VINA RESULT:      -4.8      9.045     10.853
REMARK  0 active torsions:
REMARK  status: ('A' for Active; 'I' for Inactive)
ROOT
HETATM    1  C   LIG     1      15.426  32.064  15.515  1.00  0.00     0.150 A 
HETATM    2  C   LIG     1      14.383  31.431  16.094  1.00  0.00     0.184 A 
HETATM    3  N   LIG     1      14.079  31.986  17.279  1.00  0.00    -0.222 NA
HETATM    4  C   LIG     1      15.000  32.985  17.374  1.00  0.00     0.210 A 
HETATM    5  N   LIG     1      15.838  33.057  16.309  1.00  0.00    -0.343 N 
HETATM    6  N   LIG     1      13.762  30.378  15.510  1.00  0.00    -0.222 NA
HETATM    7  C   LIG     1      14.219  29.954  14.291  1.00  0.00     0.212 A 
HETATM    8  N   LIG     1      15.278  30.584  13.685  1.00  0.00    -0.316 N 
HETATM    9  C   LIG     1      15.901  31.646  14.279  1.00  0.00     0.277 A 
HETATM   10  O   LIG     1      16.873  32.223  13.723  1.00  0.00    -0.266 OA
HETATM   11  H   LIG     1      16.620  33.732  16.151  1.00  0.00     0.167 HD
HETATM   12  H   LIG     1      15.609  30.241  12.754  1.00  0.00     0.170 HD
ENDROOT
TORSDOF 0
ENDMDL
MODEL 20
REMARK VINA RESULT:      -4.7      9.350     10.876
REMARK  0 active torsions:
REMARK  status: ('A' for Active; 'I' for Inactive)
ROOT
HETATM    1  C   LIG     1      15.490  32.044  15.100  1.00  0.00     0.150 A 
HETATM    2  C   LIG     1      16.095  33.068  15.739  1.00  0.00     0.184 A 
HETATM    3  N   LIG     1      15.623  33.206  16.989  1.00  0.00    -0.222 NA
HETATM    4  C   LIG     1      14.702  32.205  17.060  1.00  0.00     0.210 A 
HETATM    5  N   LIG     1      14.597  31.477  15.920  1.00  0.00    -0.343 N 
HETATM    6  N   LIG     1      17.048  33.827  15.145  1.00  0.00    -0.222 NA
HETATM    7  C   LIG     1      17.398  33.530  13.855  1.00  0.00     0.212 A 
HETATM    8  N   LIG     1      16.795  32.493  13.188  1.00  0.00    -0.316 N 
HETATM    9  C   LIG     1      15.834  31.731  13.793  1.00  0.00     0.277 A 
HETATM   10  O   LIG     1      15.280  30.779  13.180  1.00  0.00    -0.266 OA
HETATM   11  H   LIG     1      13.968  30.665  15.730  1.00  0.00     0.167 HD
HETATM   12  H   LIG     1      17.079  32.286  12.204  1.00  0.00     0.170 HD
ENDROOT
TORSDOF 0
ENDMDL
