REMARK  2 active torsions:
REMARK  status: ('A' for Active; 'I' for Inactive)
REMARK    1  A    between atoms: C_19  and  C_21 
REMARK    2  A    between atoms: C_19  and  O_20 
ROOT
HETATM    1  O   LIG     1      -6.061   0.599   1.504  1.00  0.00    -0.293 OA
HETATM    2  C   LIG     1      -4.925   0.624   0.959  1.00  0.00     0.149 C 
HETATM    3  C   LIG     1      -4.210   1.934   0.805  1.00  0.00     0.084 C 
HETATM    4  C   LIG     1      -2.706   1.731   0.571  1.00  0.00     0.022 C 
HETATM    5  C   LIG     1      -2.405   0.654  -0.516  1.00  0.00    -0.016 C 
HETATM    6  C   LIG     1      -2.897   1.154  -1.896  1.00  0.00     0.020 C 
HETATM    7  C   LIG     1      -3.157  -0.646  -0.184  1.00  0.00    -0.068 C 
HETATM    8  C   LIG     1      -2.500  -1.974  -0.525  1.00  0.00     0.035 C 
HETATM    9  C   LIG     1      -1.092  -2.108   0.112  1.00  0.00     0.010 C 
HETATM   10  C   LIG     1      -0.483  -0.735   0.483  1.00  0.00    -0.004 C 
HETATM   11  C   LIG     1      -0.867   0.328  -0.593  1.00  0.00     0.002 C 
HETATM   12  C   LIG     1       0.097   1.541  -0.557  1.00  0.00     0.007 C 
HETATM   13  C   LIG     1       1.567   1.133  -0.870  1.00  0.00     0.013 C 
HETATM   14  C   LIG     1       1.966  -0.298  -0.346  1.00  0.00    -0.002 C 
HETATM   15  C   LIG     1       1.896  -1.315  -1.535  1.00  0.00     0.019 C 
HETATM   16  C   LIG     1       1.035  -0.704   0.810  1.00  0.00     0.002 C 
HETATM   17  C   LIG     1       1.694  -1.902   1.483  1.00  0.00     0.009 C 
HETATM   18  C   LIG     1       3.203  -1.688   1.262  1.00  0.00     0.047 C 
HETATM   19  C   LIG     1       3.375  -0.438   0.340  1.00  0.00     0.125 C 
HETATM   20  C   LIG     1      -4.333  -0.629   0.464  1.00  0.00     0.053 C 
ENDROOT
BRANCH  19  21
HETATM   21  C   LIG     1       3.771   0.790   1.178  1.00  0.00     0.158 C 
HETATM   22  C   LIG     1       4.737   1.825   0.667  1.00  0.00     0.094 C 
HETATM   23  O   LIG     1       3.300   0.952   2.295  1.00  0.00    -0.295 OA
ENDBRANCH  19  21
BRANCH  19  24
HETATM   24  O   LIG     1       4.375  -0.690  -0.623  1.00  0.00    -0.381 OA
HETATM   25  H   LIG     1       5.212  -0.917  -0.136  1.00  0.00     0.211 HD
ENDBRANCH  19  24
TORSDOF 2
