REMARK  1 active torsions:
REMARK  status: ('A' for Active; 'I' for Inactive)
REMARK       I    between atoms: N_2  and  C_5 
REMARK    1  A    between atoms: N_2  and  N_3 
REMARK       I    between atoms: C_5  and  N_6 
ROOT
HETATM    1  C   LIG     1      -1.122  -0.890   0.327  1.00  0.00     0.187 C 
HETATM    2  N   LIG     1      -0.525   0.438   0.210  1.00  0.00    -0.200 N 
HETATM    3  C   LIG     1       0.839   0.597  -0.249  1.00  0.00     0.337 C 
HETATM    4  N   LIG     1       1.641  -0.536  -0.601  1.00  0.00    -0.350 N 
HETATM    5  O   LIG     1       1.346   1.746  -0.346  1.00  0.00    -0.245 OA
HETATM    6  H   LIG     1       1.282  -1.513  -0.542  1.00  0.00     0.160 HD
HETATM    7  H   LIG     1       2.622  -0.395  -0.929  1.00  0.00     0.160 HD
ENDROOT
BRANCH   2   8
HETATM    8  N   LIG     1      -1.326   1.543   0.560  1.00  0.00    -0.008 NA
HETATM    9  O   LIG     1      -0.909   2.718   0.495  1.00  0.00    -0.041 OA
ENDBRANCH   2   8
TORSDOF 1
