MODEL 1
REMARK VINA RESULT:      -4.4      0.000      0.000
REMARK  1 active torsions:
REMARK  status: ('A' for Active; 'I' for Inactive)
REMARK       I    between atoms: N_2  and  C_5 
REMARK    1  A    between atoms: N_2  and  N_3 
REMARK       I    between atoms: C_5  and  N_6 
ROOT
HETATM    1  C   LIG     1      17.071  36.037  23.655  1.00  0.00     0.187 C 
HETATM    2  N   LIG     1      16.709  37.325  24.241  1.00  0.00    -0.200 N 
HETATM    3  C   LIG     1      17.458  37.866  25.356  1.00  0.00     0.337 C 
HETATM    4  N   LIG     1      18.571  37.159  25.916  1.00  0.00    -0.350 N 
HETATM    5  O   LIG     1      17.139  38.977  25.856  1.00  0.00    -0.245 OA
HETATM    6  H   LIG     1      18.885  36.235  25.550  1.00  0.00     0.160 HD
HETATM    7  H   LIG     1      19.094  37.570  26.720  1.00  0.00     0.160 HD
ENDROOT
BRANCH   2   8
HETATM    8  N   LIG     1      15.613  38.009  23.680  1.00  0.00    -0.008 NA
HETATM    9  O   LIG     1      15.753  38.909  22.825  1.00  0.00    -0.041 OA
ENDBRANCH   2   8
TORSDOF 1
ENDMDL
MODEL 2
REMARK VINA RESULT:      -4.3      4.834      5.193
REMARK  1 active torsions:
REMARK  status: ('A' for Active; 'I' for Inactive)
REMARK       I    between atoms: N_2  and  C_5 
REMARK    1  A    between atoms: N_2  and  N_3 
REMARK       I    between atoms: C_5  and  N_6 
ROOT
HETATM    1  C   LIG     1      17.571  37.287  21.345  1.00  0.00     0.187 C 
HETATM    2  N   LIG     1      18.598  37.702  20.392  1.00  0.00    -0.200 N 
HETATM    3  C   LIG     1      19.245  38.991  20.518  1.00  0.00     0.337 C 
HETATM    4  N   LIG     1      18.901  39.895  21.574  1.00  0.00    -0.350 N 
HETATM    5  O   LIG     1      20.128  39.341  19.691  1.00  0.00    -0.245 OA
HETATM    6  H   LIG     1      18.178  39.667  22.289  1.00  0.00     0.160 HD
HETATM    7  H   LIG     1      19.382  40.819  21.643  1.00  0.00     0.160 HD
ENDROOT
BRANCH   2   8
HETATM    8  N   LIG     1      18.925  36.803  19.358  1.00  0.00    -0.008 NA
HETATM    9  O   LIG     1      18.132  36.530  18.433  1.00  0.00    -0.041 OA
ENDBRANCH   2   8
TORSDOF 1
ENDMDL
MODEL 3
REMARK VINA RESULT:      -4.3      7.696      8.236
REMARK  1 active torsions:
REMARK  status: ('A' for Active; 'I' for Inactive)
REMARK       I    between atoms: N_2  and  C_5 
REMARK    1  A    between atoms: N_2  and  N_3 
REMARK       I    between atoms: C_5  and  N_6 
ROOT
HETATM    1  C   LIG     1      14.137  32.485  16.819  1.00  0.00     0.187 C 
HETATM    2  N   LIG     1      14.966  33.191  17.793  1.00  0.00    -0.200 N 
HETATM    3  C   LIG     1      15.137  32.671  19.133  1.00  0.00     0.337 C 
HETATM    4  N   LIG     1      14.503  31.454  19.544  1.00  0.00    -0.350 N 
HETATM    5  O   LIG     1      15.853  33.287  19.966  1.00  0.00    -0.245 OA
HETATM    6  H   LIG     1      13.897  30.898  18.903  1.00  0.00     0.160 HD
HETATM    7  H   LIG     1      14.642  31.100  20.516  1.00  0.00     0.160 HD
ENDROOT
BRANCH   2   8
HETATM    8  N   LIG     1      15.583  34.387  17.374  1.00  0.00    -0.008 NA
HETATM    9  O   LIG     1      16.041  34.535  16.222  1.00  0.00    -0.041 OA
ENDBRANCH   2   8
TORSDOF 1
ENDMDL
MODEL 4
REMARK VINA RESULT:      -4.1      2.100      2.208
REMARK  1 active torsions:
REMARK  status: ('A' for Active; 'I' for Inactive)
REMARK       I    between atoms: N_2  and  C_5 
REMARK    1  A    between atoms: N_2  and  N_3 
REMARK       I    between atoms: C_5  and  N_6 
ROOT
HETATM    1  C   LIG     1      17.479  35.148  25.132  1.00  0.00     0.187 C 
HETATM    2  N   LIG     1      17.136  36.283  24.279  1.00  0.00    -0.200 N 
HETATM    3  C   LIG     1      17.107  37.628  24.815  1.00  0.00     0.337 C 
HETATM    4  N   LIG     1      17.414  37.886  26.190  1.00  0.00    -0.350 N 
HETATM    5  O   LIG     1      16.809  38.601  24.072  1.00  0.00    -0.245 OA
HETATM    6  H   LIG     1      17.667  37.126  26.857  1.00  0.00     0.160 HD
HETATM    7  H   LIG     1      17.387  38.865  26.552  1.00  0.00     0.160 HD
ENDROOT
BRANCH   2   8
HETATM    8  N   LIG     1      16.836  36.014  22.929  1.00  0.00    -0.008 NA
HETATM    9  O   LIG     1      17.240  34.985  22.347  1.00  0.00    -0.041 OA
ENDBRANCH   2   8
TORSDOF 1
ENDMDL
MODEL 5
REMARK VINA RESULT:      -4.1      4.800      5.452
REMARK  1 active torsions:
REMARK  status: ('A' for Active; 'I' for Inactive)
REMARK       I    between atoms: N_2  and  C_5 
REMARK    1  A    between atoms: N_2  and  N_3 
REMARK       I    between atoms: C_5  and  N_6 
ROOT
HETATM    1  C   LIG     1      18.270  39.027  21.780  1.00  0.00     0.187 C 
HETATM    2  N   LIG     1      18.611  38.493  20.464  1.00  0.00    -0.200 N 
HETATM    3  C   LIG     1      18.309  37.118  20.124  1.00  0.00     0.337 C 
HETATM    4  N   LIG     1      17.669  36.244  21.061  1.00  0.00    -0.350 N 
HETATM    5  O   LIG     1      18.608  36.665  18.987  1.00  0.00    -0.245 OA
HETATM    6  H   LIG     1      17.397  36.556  22.018  1.00  0.00     0.160 HD
HETATM    7  H   LIG     1      17.462  35.257  20.792  1.00  0.00     0.160 HD
ENDROOT
BRANCH   2   8
HETATM    8  N   LIG     1      19.240  39.364  19.552  1.00  0.00    -0.008 NA
HETATM    9  O   LIG     1      20.478  39.389  19.398  1.00  0.00    -0.041 OA
ENDBRANCH   2   8
TORSDOF 1
ENDMDL
MODEL 6
REMARK VINA RESULT:      -4.0      4.275      4.713
REMARK  1 active torsions:
REMARK  status: ('A' for Active; 'I' for Inactive)
REMARK       I    between atoms: N_2  and  C_5 
REMARK    1  A    between atoms: N_2  and  N_3 
REMARK       I    between atoms: C_5  and  N_6 
ROOT
HETATM    1  C   LIG     1      19.006  37.091  19.522  1.00  0.00     0.187 C 
HETATM    2  N   LIG     1      18.773  38.272  20.349  1.00  0.00    -0.200 N 
HETATM    3  C   LIG     1      17.876  38.214  21.484  1.00  0.00     0.337 C 
HETATM    4  N   LIG     1      17.194  37.003  21.831  1.00  0.00    -0.350 N 
HETATM    5  O   LIG     1      17.680  39.238  22.191  1.00  0.00    -0.245 OA
HETATM    6  H   LIG     1      17.311  36.122  21.286  1.00  0.00     0.160 HD
HETATM    7  H   LIG     1      16.552  36.987  22.654  1.00  0.00     0.160 HD
ENDROOT
BRANCH   2   8
HETATM    8  N   LIG     1      19.451  39.456  19.996  1.00  0.00    -0.008 NA
HETATM    9  O   LIG     1      20.462  39.454  19.264  1.00  0.00    -0.041 OA
ENDBRANCH   2   8
TORSDOF 1
ENDMDL
MODEL 7
REMARK VINA RESULT:      -4.0     10.451     11.531
REMARK  1 active torsions:
REMARK  status: ('A' for Active; 'I' for Inactive)
REMARK       I    between atoms: N_2  and  C_5 
REMARK    1  A    between atoms: N_2  and  N_3 
REMARK       I    between atoms: C_5  and  N_6 
ROOT
HETATM    1  C   LIG     1      18.072  32.920  14.867  1.00  0.00     0.187 C 
HETATM    2  N   LIG     1      17.643  34.140  14.189  1.00  0.00    -0.200 N 
HETATM    3  C   LIG     1      17.795  34.282  12.756  1.00  0.00     0.337 C 
HETATM    4  N   LIG     1      18.368  33.236  11.963  1.00  0.00    -0.350 N 
HETATM    5  O   LIG     1      17.423  35.338  12.180  1.00  0.00    -0.245 OA
HETATM    6  H   LIG     1      18.697  32.338  12.378  1.00  0.00     0.160 HD
HETATM    7  H   LIG     1      18.467  33.363  10.931  1.00  0.00     0.160 HD
ENDROOT
BRANCH   2   8
HETATM    8  N   LIG     1      17.081  35.160  14.982  1.00  0.00    -0.008 NA
HETATM    9  O   LIG     1      16.436  34.918  16.023  1.00  0.00    -0.041 OA
ENDBRANCH   2   8
TORSDOF 1
ENDMDL
MODEL 8
REMARK VINA RESULT:      -4.0      1.951      2.807
REMARK  1 active torsions:
REMARK  status: ('A' for Active; 'I' for Inactive)
REMARK       I    between atoms: N_2  and  C_5 
REMARK    1  A    between atoms: N_2  and  N_3 
REMARK       I    between atoms: C_5  and  N_6 
ROOT
HETATM    1  C   LIG     1      16.866  36.013  22.849  1.00  0.00     0.187 C 
HETATM    2  N   LIG     1      17.121  36.682  24.122  1.00  0.00    -0.200 N 
HETATM    3  C   LIG     1      16.908  38.107  24.263  1.00  0.00     0.337 C 
HETATM    4  N   LIG     1      16.444  38.901  23.166  1.00  0.00    -0.350 N 
HETATM    5  O   LIG     1      17.132  38.676  25.365  1.00  0.00    -0.245 OA
HETATM    6  H   LIG     1      16.242  38.492  22.228  1.00  0.00     0.160 HD
HETATM    7  H   LIG     1      16.299  39.927  23.293  1.00  0.00     0.160 HD
ENDROOT
BRANCH   2   8
HETATM    8  N   LIG     1      17.578  35.888  25.193  1.00  0.00    -0.008 NA
HETATM    9  O   LIG     1      17.229  34.698  25.339  1.00  0.00    -0.041 OA
ENDBRANCH   2   8
TORSDOF 1
ENDMDL
MODEL 9
REMARK VINA RESULT:      -4.0      8.886      9.624
REMARK  1 active torsions:
REMARK  status: ('A' for Active; 'I' for Inactive)
REMARK       I    between atoms: N_2  and  C_5 
REMARK    1  A    between atoms: N_2  and  N_3 
REMARK       I    between atoms: C_5  and  N_6 
ROOT
HETATM    1  C   LIG     1      15.838  32.259  14.845  1.00  0.00     0.187 C 
HETATM    2  N   LIG     1      16.085  33.410  15.710  1.00  0.00    -0.200 N 
HETATM    3  C   LIG     1      15.202  33.704  16.818  1.00  0.00     0.337 C 
HETATM    4  N   LIG     1      14.064  32.880  17.100  1.00  0.00    -0.350 N 
HETATM    5  O   LIG     1      15.422  34.699  17.559  1.00  0.00    -0.245 OA
HETATM    6  H   LIG     1      13.825  32.044  16.526  1.00  0.00     0.160 HD
HETATM    7  H   LIG     1      13.442  33.114  17.906  1.00  0.00     0.160 HD
ENDROOT
BRANCH   2   8
HETATM    8  N   LIG     1      17.208  34.210  15.420  1.00  0.00    -0.008 NA
HETATM    9  O   LIG     1      17.117  35.287  14.794  1.00  0.00    -0.041 OA
ENDBRANCH   2   8
TORSDOF 1
ENDMDL
MODEL 10
REMARK VINA RESULT:      -3.9      2.460      3.175
REMARK  1 active torsions:
REMARK  status: ('A' for Active; 'I' for Inactive)
REMARK       I    between atoms: N_2  and  C_5 
REMARK    1  A    between atoms: N_2  and  N_3 
REMARK       I    between atoms: C_5  and  N_6 
ROOT
HETATM    1  C   LIG     1      16.146  36.263  21.909  1.00  0.00     0.187 C 
HETATM    2  N   LIG     1      16.615  37.578  22.337  1.00  0.00    -0.200 N 
HETATM    3  C   LIG     1      17.721  38.224  21.663  1.00  0.00     0.337 C 
HETATM    4  N   LIG     1      18.388  37.597  20.561  1.00  0.00    -0.350 N 
HETATM    5  O   LIG     1      18.119  39.358  22.040  1.00  0.00    -0.245 OA
HETATM    6  H   LIG     1      18.108  36.659  20.202  1.00  0.00     0.160 HD
HETATM    7  H   LIG     1      19.183  38.083  20.092  1.00  0.00     0.160 HD
ENDROOT
BRANCH   2   8
HETATM    8  N   LIG     1      15.950  38.183  23.423  1.00  0.00    -0.008 NA
HETATM    9  O   LIG     1      16.308  38.010  24.606  1.00  0.00    -0.041 OA
ENDBRANCH   2   8
TORSDOF 1
ENDMDL
MODEL 11
REMARK VINA RESULT:      -3.9      9.999     11.164
REMARK  1 active torsions:
REMARK  status: ('A' for Active; 'I' for Inactive)
REMARK       I    between atoms: N_2  and  C_5 
REMARK    1  A    between atoms: N_2  and  N_3 
REMARK       I    between atoms: C_5  and  N_6 
ROOT
HETATM    1  C   LIG     1      15.001  32.583  16.645  1.00  0.00     0.187 C 
HETATM    2  N   LIG     1      15.849  32.682  15.460  1.00  0.00    -0.200 N 
HETATM    3  C   LIG     1      15.773  31.687  14.411  1.00  0.00     0.337 C 
HETATM    4  N   LIG     1      14.868  30.580  14.502  1.00  0.00    -0.350 N 
HETATM    5  O   LIG     1      16.509  31.780  13.393  1.00  0.00    -0.245 OA
HETATM    6  H   LIG     1      14.233  30.445  15.318  1.00  0.00     0.160 HD
HETATM    7  H   LIG     1      14.832  29.876  13.733  1.00  0.00     0.160 HD
ENDROOT
BRANCH   2   8
HETATM    8  N   LIG     1      16.734  33.776  15.385  1.00  0.00    -0.008 NA
HETATM    9  O   LIG     1      16.507  34.861  15.959  1.00  0.00    -0.041 OA
ENDBRANCH   2   8
TORSDOF 1
ENDMDL
MODEL 12
REMARK VINA RESULT:      -3.8      2.916      3.868
REMARK  1 active torsions:
REMARK  status: ('A' for Active; 'I' for Inactive)
REMARK       I    between atoms: N_2  and  C_5 
REMARK    1  A    between atoms: N_2  and  N_3 
REMARK       I    between atoms: C_5  and  N_6 
ROOT
HETATM    1  C   LIG     1      17.575  38.607  21.800  1.00  0.00     0.187 C 
HETATM    2  N   LIG     1      17.176  37.286  22.280  1.00  0.00    -0.200 N 
HETATM    3  C   LIG     1      17.276  36.126  21.420  1.00  0.00     0.337 C 
HETATM    4  N   LIG     1      17.768  36.235  20.080  1.00  0.00    -0.350 N 
HETATM    5  O   LIG     1      16.928  34.991  21.842  1.00  0.00    -0.245 OA
HETATM    6  H   LIG     1      18.071  37.144  19.669  1.00  0.00     0.160 HD
HETATM    7  H   LIG     1      17.830  35.383  19.479  1.00  0.00     0.160 HD
ENDROOT
BRANCH   2   8
HETATM    8  N   LIG     1      16.694  37.194  23.601  1.00  0.00    -0.008 NA
HETATM    9  O   LIG     1      15.904  38.032  24.084  1.00  0.00    -0.041 OA
ENDBRANCH   2   8
TORSDOF 1
ENDMDL
MODEL 13
REMARK VINA RESULT:      -3.8      4.058      4.513
REMARK  1 active torsions:
REMARK  status: ('A' for Active; 'I' for Inactive)
REMARK       I    between atoms: N_2  and  C_5 
REMARK    1  A    between atoms: N_2  and  N_3 
REMARK       I    between atoms: C_5  and  N_6 
ROOT
HETATM    1  C   LIG     1      19.218  37.024  19.458  1.00  0.00     0.187 C 
HETATM    2  N   LIG     1      18.282  37.389  20.518  1.00  0.00    -0.200 N 
HETATM    3  C   LIG     1      18.269  38.731  21.063  1.00  0.00     0.337 C 
HETATM    4  N   LIG     1      19.169  39.736  20.582  1.00  0.00    -0.350 N 
HETATM    5  O   LIG     1      17.460  39.036  21.978  1.00  0.00    -0.245 OA
HETATM    6  H   LIG     1      19.864  39.548  19.828  1.00  0.00     0.160 HD
HETATM    7  H   LIG     1      19.140  40.696  20.992  1.00  0.00     0.160 HD
ENDROOT
BRANCH   2   8
HETATM    8  N   LIG     1      17.404  36.390  20.981  1.00  0.00    -0.008 NA
HETATM    9  O   LIG     1      16.900  35.538  20.220  1.00  0.00    -0.041 OA
ENDBRANCH   2   8
TORSDOF 1
ENDMDL
MODEL 14
REMARK VINA RESULT:      -3.8      2.207      2.285
REMARK  1 active torsions:
REMARK  status: ('A' for Active; 'I' for Inactive)
REMARK       I    between atoms: N_2  and  C_5 
REMARK    1  A    between atoms: N_2  and  N_3 
REMARK       I    between atoms: C_5  and  N_6 
ROOT
HETATM    1  C   LIG     1      17.058  39.031  22.677  1.00  0.00     0.187 C 
HETATM    2  N   LIG     1      17.014  37.682  23.237  1.00  0.00    -0.200 N 
HETATM    3  C   LIG     1      17.131  37.470  24.664  1.00  0.00     0.337 C 
HETATM    4  N   LIG     1      17.293  38.570  25.567  1.00  0.00    -0.350 N 
HETATM    5  O   LIG     1      17.093  36.304  25.138  1.00  0.00    -0.245 OA
HETATM    6  H   LIG     1      17.334  39.559  25.240  1.00  0.00     0.160 HD
HETATM    7  H   LIG     1      17.376  38.391  26.592  1.00  0.00     0.160 HD
ENDROOT
BRANCH   2   8
HETATM    8  N   LIG     1      16.854  36.611  22.336  1.00  0.00    -0.008 NA
HETATM    9  O   LIG     1      15.733  36.234  21.937  1.00  0.00    -0.041 OA
ENDBRANCH   2   8
TORSDOF 1
ENDMDL
MODEL 15
REMARK VINA RESULT:      -3.8      4.076      5.185
REMARK  1 active torsions:
REMARK  status: ('A' for Active; 'I' for Inactive)
REMARK       I    between atoms: N_2  and  C_5 
REMARK    1  A    between atoms: N_2  and  N_3 
REMARK       I    between atoms: C_5  and  N_6 
ROOT
HETATM    1  C   LIG     1      16.787  36.275  22.497  1.00  0.00     0.187 C 
HETATM    2  N   LIG     1      16.788  35.845  21.101  1.00  0.00    -0.200 N 
HETATM    3  C   LIG     1      15.675  35.094  20.559  1.00  0.00     0.337 C 
HETATM    4  N   LIG     1      14.545  34.752  21.369  1.00  0.00    -0.350 N 
HETATM    5  O   LIG     1      15.684  34.726  19.354  1.00  0.00    -0.245 OA
HETATM    6  H   LIG     1      14.476  35.025  22.373  1.00  0.00     0.160 HD
HETATM    7  H   LIG     1      13.755  34.210  20.955  1.00  0.00     0.160 HD
ENDROOT
BRANCH   2   8
HETATM    8  N   LIG     1      17.907  36.188  20.316  1.00  0.00    -0.008 NA
HETATM    9  O   LIG     1      18.388  37.340  20.307  1.00  0.00    -0.041 OA
ENDBRANCH   2   8
TORSDOF 1
ENDMDL
MODEL 16
REMARK VINA RESULT:      -3.7      2.600      3.222
REMARK  1 active torsions:
REMARK  status: ('A' for Active; 'I' for Inactive)
REMARK       I    between atoms: N_2  and  C_5 
REMARK    1  A    between atoms: N_2  and  N_3 
REMARK       I    between atoms: C_5  and  N_6 
ROOT
HETATM    1  C   LIG     1      16.878  35.311  22.802  1.00  0.00     0.187 C 
HETATM    2  N   LIG     1      17.105  36.567  22.092  1.00  0.00    -0.200 N 
HETATM    3  C   LIG     1      16.797  37.836  22.718  1.00  0.00     0.337 C 
HETATM    4  N   LIG     1      16.264  37.899  24.046  1.00  0.00    -0.350 N 
HETATM    5  O   LIG     1      16.995  38.914  22.098  1.00  0.00    -0.245 OA
HETATM    6  H   LIG     1      16.076  37.044  24.612  1.00  0.00     0.160 HD
HETATM    7  H   LIG     1      16.050  38.826  24.475  1.00  0.00     0.160 HD
ENDROOT
BRANCH   2   8
HETATM    8  N   LIG     1      17.629  36.490  20.786  1.00  0.00    -0.008 NA
HETATM    9  O   LIG     1      17.131  35.755  19.909  1.00  0.00    -0.041 OA
ENDBRANCH   2   8
TORSDOF 1
ENDMDL
MODEL 17
REMARK VINA RESULT:      -3.7     10.503     11.360
REMARK  1 active torsions:
REMARK  status: ('A' for Active; 'I' for Inactive)
REMARK       I    between atoms: N_2  and  C_5 
REMARK    1  A    between atoms: N_2  and  N_3 
REMARK       I    between atoms: C_5  and  N_6 
ROOT
HETATM    1  C   LIG     1      18.398  33.291  12.590  1.00  0.00     0.187 C 
HETATM    2  N   LIG     1      17.677  34.209  13.467  1.00  0.00    -0.200 N 
HETATM    3  C   LIG     1      17.380  33.843  14.836  1.00  0.00     0.337 C 
HETATM    4  N   LIG     1      17.781  32.576  15.370  1.00  0.00    -0.350 N 
HETATM    5  O   LIG     1      16.757  34.641  15.586  1.00  0.00    -0.245 OA
HETATM    6  H   LIG     1      18.298  31.871  14.803  1.00  0.00     0.160 HD
HETATM    7  H   LIG     1      17.554  32.336  16.361  1.00  0.00     0.160 HD
ENDROOT
BRANCH   2   8
HETATM    8  N   LIG     1      17.289  35.452  12.928  1.00  0.00    -0.008 NA
HETATM    9  O   LIG     1      16.998  35.595  11.722  1.00  0.00    -0.041 OA
ENDBRANCH   2   8
TORSDOF 1
ENDMDL
MODEL 18
REMARK VINA RESULT:      -3.7      3.462      4.032
REMARK  1 active torsions:
REMARK  status: ('A' for Active; 'I' for Inactive)
REMARK       I    between atoms: N_2  and  C_5 
REMARK    1  A    between atoms: N_2  and  N_3 
REMARK       I    between atoms: C_5  and  N_6 
ROOT
HETATM    1  C   LIG     1      18.697  38.948  20.836  1.00  0.00     0.187 C 
HETATM    2  N   LIG     1      17.869  37.806  21.216  1.00  0.00    -0.200 N 
HETATM    3  C   LIG     1      16.913  37.915  22.298  1.00  0.00     0.337 C 
HETATM    4  N   LIG     1      16.751  39.137  23.026  1.00  0.00    -0.350 N 
HETATM    5  O   LIG     1      16.204  36.925  22.620  1.00  0.00    -0.245 OA
HETATM    6  H   LIG     1      17.308  39.992  22.811  1.00  0.00     0.160 HD
HETATM    7  H   LIG     1      16.055  39.190  23.803  1.00  0.00     0.160 HD
ENDROOT
BRANCH   2   8
HETATM    8  N   LIG     1      18.040  36.610  20.491  1.00  0.00    -0.008 NA
HETATM    9  O   LIG     1      18.518  36.590  19.338  1.00  0.00    -0.041 OA
ENDBRANCH   2   8
TORSDOF 1
ENDMDL
MODEL 19
REMARK VINA RESULT:      -3.5      3.755      4.460
REMARK  1 active torsions:
REMARK  status: ('A' for Active; 'I' for Inactive)
REMARK       I    between atoms: N_2  and  C_5 
REMARK    1  A    between atoms: N_2  and  N_3 
REMARK       I    between atoms: C_5  and  N_6 
ROOT
HETATM    1  C   LIG     1      17.301  38.931  22.570  1.00  0.00     0.187 C 
HETATM    2  N   LIG     1      17.735  37.973  21.558  1.00  0.00    -0.200 N 
HETATM    3  C   LIG     1      18.685  38.358  20.535  1.00  0.00     0.337 C 
HETATM    4  N   LIG     1      19.225  39.684  20.484  1.00  0.00    -0.350 N 
HETATM    5  O   LIG     1      19.053  37.525  19.664  1.00  0.00    -0.245 OA
HETATM    6  H   LIG     1      18.960  40.420  21.173  1.00  0.00     0.160 HD
HETATM    7  H   LIG     1      19.908  39.937  19.736  1.00  0.00     0.160 HD
ENDROOT
BRANCH   2   8
HETATM    8  N   LIG     1      17.195  36.673  21.620  1.00  0.00    -0.008 NA
HETATM    9  O   LIG     1      15.984  36.462  21.837  1.00  0.00    -0.041 OA
ENDBRANCH   2   8
TORSDOF 1
ENDMDL
MODEL 20
REMARK VINA RESULT:      -3.4      3.049      4.063
REMARK  1 active torsions:
REMARK  status: ('A' for Active; 'I' for Inactive)
REMARK       I    between atoms: N_2  and  C_5 
REMARK    1  A    between atoms: N_2  and  N_3 
REMARK       I    between atoms: C_5  and  N_6 
ROOT
HETATM    1  C   LIG     1      16.896  37.519  23.283  1.00  0.00     0.187 C 
HETATM    2  N   LIG     1      17.388  37.476  21.909  1.00  0.00    -0.200 N 
HETATM    3  C   LIG     1      17.363  36.241  21.154  1.00  0.00     0.337 C 
HETATM    4  N   LIG     1      16.857  35.030  21.727  1.00  0.00    -0.350 N 
HETATM    5  O   LIG     1      17.791  36.212  19.969  1.00  0.00    -0.245 OA
HETATM    6  H   LIG     1      16.489  34.986  22.701  1.00  0.00     0.160 HD
HETATM    7  H   LIG     1      16.849  34.152  21.162  1.00  0.00     0.160 HD
ENDROOT
BRANCH   2   8
HETATM    8  N   LIG     1      17.884  38.675  21.358  1.00  0.00    -0.008 NA
HETATM    9  O   LIG     1      18.434  39.552  22.055  1.00  0.00    -0.041 OA
ENDBRANCH   2   8
TORSDOF 1
ENDMDL
