MODEL 1
REMARK VINA RESULT:      -6.0      0.000      0.000
REMARK  0 active torsions:
REMARK  status: ('A' for Active; 'I' for Inactive)
ROOT
HETATM    1  C   LIG     1      16.875  35.279  22.539  1.00  0.00     0.010 C 
HETATM    2  C   LIG     1      16.887  35.822  23.977  1.00  0.00    -0.015 C 
HETATM    3  C   LIG     1      17.640  34.831  24.890  1.00  0.00     0.004 C 
HETATM    4  C   LIG     1      17.688  35.328  26.337  1.00  0.00     0.000 C 
HETATM    5  C   LIG     1      18.339  36.710  26.415  1.00  0.00     0.000 C 
HETATM    6  C   LIG     1      17.592  37.714  25.531  1.00  0.00     0.004 C 
HETATM    7  C   LIG     1      17.532  37.237  24.064  1.00  0.00    -0.015 C 
HETATM    8  C   LIG     1      16.766  38.274  23.225  1.00  0.00     0.010 C 
ENDROOT
TORSDOF 0
ENDMDL
MODEL 2
REMARK VINA RESULT:      -6.0      0.029      2.395
REMARK  0 active torsions:
REMARK  status: ('A' for Active; 'I' for Inactive)
ROOT
HETATM    1  C   LIG     1      16.790  38.272  23.185  1.00  0.00     0.010 C 
HETATM    2  C   LIG     1      17.542  37.238  24.038  1.00  0.00    -0.015 C 
HETATM    3  C   LIG     1      17.603  37.730  25.499  1.00  0.00     0.004 C 
HETATM    4  C   LIG     1      18.337  36.731  26.397  1.00  0.00     0.000 C 
HETATM    5  C   LIG     1      17.672  35.354  26.335  1.00  0.00     0.000 C 
HETATM    6  C   LIG     1      17.622  34.839  24.893  1.00  0.00     0.004 C 
HETATM    7  C   LIG     1      16.884  35.828  23.966  1.00  0.00    -0.015 C 
HETATM    8  C   LIG     1      16.870  35.268  22.534  1.00  0.00     0.010 C 
ENDROOT
TORSDOF 0
ENDMDL
MODEL 3
REMARK VINA RESULT:      -5.9      2.994      4.689
REMARK  0 active torsions:
REMARK  status: ('A' for Active; 'I' for Inactive)
ROOT
HETATM    1  C   LIG     1      16.830  35.699  20.852  1.00  0.00     0.010 C 
HETATM    2  C   LIG     1      17.974  36.720  20.956  1.00  0.00    -0.015 C 
HETATM    3  C   LIG     1      18.550  36.985  19.548  1.00  0.00     0.004 C 
HETATM    4  C   LIG     1      19.691  38.004  19.592  1.00  0.00     0.000 C 
HETATM    5  C   LIG     1      19.223  39.317  20.224  1.00  0.00     0.000 C 
HETATM    6  C   LIG     1      18.668  39.076  21.631  1.00  0.00     0.004 C 
HETATM    7  C   LIG     1      17.512  38.054  21.614  1.00  0.00    -0.015 C 
HETATM    8  C   LIG     1      17.000  37.844  23.048  1.00  0.00     0.010 C 
ENDROOT
TORSDOF 0
ENDMDL
MODEL 4
REMARK VINA RESULT:      -5.9      2.982      5.147
REMARK  0 active torsions:
REMARK  status: ('A' for Active; 'I' for Inactive)
ROOT
HETATM    1  C   LIG     1      17.101  37.806  23.124  1.00  0.00     0.010 C 
HETATM    2  C   LIG     1      17.555  38.033  21.673  1.00  0.00    -0.015 C 
HETATM    3  C   LIG     1      18.706  39.060  21.654  1.00  0.00     0.004 C 
HETATM    4  C   LIG     1      19.204  39.318  20.229  1.00  0.00     0.000 C 
HETATM    5  C   LIG     1      19.653  38.015  19.566  1.00  0.00     0.000 C 
HETATM    6  C   LIG     1      18.515  36.989  19.556  1.00  0.00     0.004 C 
HETATM    7  C   LIG     1      17.997  36.708  20.983  1.00  0.00    -0.015 C 
HETATM    8  C   LIG     1      16.854  35.681  20.914  1.00  0.00     0.010 C 
ENDROOT
TORSDOF 0
ENDMDL
MODEL 5
REMARK VINA RESULT:      -5.7      2.774      3.870
REMARK  0 active torsions:
REMARK  status: ('A' for Active; 'I' for Inactive)
ROOT
HETATM    1  C   LIG     1      19.213  36.726  19.567  1.00  0.00     0.010 C 
HETATM    2  C   LIG     1      17.997  37.191  20.386  1.00  0.00    -0.015 C 
HETATM    3  C   LIG     1      17.419  35.992  21.165  1.00  0.00     0.004 C 
HETATM    4  C   LIG     1      16.207  36.402  22.006  1.00  0.00     0.000 C 
HETATM    5  C   LIG     1      16.574  37.528  22.974  1.00  0.00     0.000 C 
HETATM    6  C   LIG     1      17.130  38.737  22.216  1.00  0.00     0.004 C 
HETATM    7  C   LIG     1      18.356  38.351  21.361  1.00  0.00    -0.015 C 
HETATM    8  C   LIG     1      18.868  39.596  20.617  1.00  0.00     0.010 C 
ENDROOT
TORSDOF 0
ENDMDL
MODEL 6
REMARK VINA RESULT:      -5.7      2.784      4.527
REMARK  0 active torsions:
REMARK  status: ('A' for Active; 'I' for Inactive)
ROOT
HETATM    1  C   LIG     1      18.869  39.605  20.631  1.00  0.00     0.010 C 
HETATM    2  C   LIG     1      18.354  38.355  21.363  1.00  0.00    -0.015 C 
HETATM    3  C   LIG     1      17.123  38.735  22.214  1.00  0.00     0.004 C 
HETATM    4  C   LIG     1      16.563  37.522  22.961  1.00  0.00     0.000 C 
HETATM    5  C   LIG     1      16.200  36.402  21.984  1.00  0.00     0.000 C 
HETATM    6  C   LIG     1      17.416  35.997  21.145  1.00  0.00     0.004 C 
HETATM    7  C   LIG     1      17.999  37.203  20.378  1.00  0.00    -0.015 C 
HETATM    8  C   LIG     1      19.219  36.743  19.562  1.00  0.00     0.010 C 
ENDROOT
TORSDOF 0
ENDMDL
MODEL 7
REMARK VINA RESULT:      -5.7      0.907      3.721
REMARK  0 active torsions:
REMARK  status: ('A' for Active; 'I' for Inactive)
ROOT
HETATM    1  C   LIG     1      17.524  37.976  25.782  1.00  0.00     0.010 C 
HETATM    2  C   LIG     1      16.909  37.169  24.627  1.00  0.00    -0.015 C 
HETATM    3  C   LIG     1      17.085  37.950  23.308  1.00  0.00     0.004 C 
HETATM    4  C   LIG     1      16.496  37.186  22.121  1.00  0.00     0.000 C 
HETATM    5  C   LIG     1      17.131  35.799  21.997  1.00  0.00     0.000 C 
HETATM    6  C   LIG     1      16.947  35.000  23.291  1.00  0.00     0.004 C 
HETATM    7  C   LIG     1      17.537  35.748  24.505  1.00  0.00    -0.015 C 
HETATM    8  C   LIG     1      17.318  34.908  25.774  1.00  0.00     0.010 C 
ENDROOT
TORSDOF 0
ENDMDL
MODEL 8
REMARK VINA RESULT:      -5.5      2.785      4.336
REMARK  0 active torsions:
REMARK  status: ('A' for Active; 'I' for Inactive)
ROOT
HETATM    1  C   LIG     1      18.623  36.732  19.276  1.00  0.00     0.010 C 
HETATM    2  C   LIG     1      18.447  37.289  20.698  1.00  0.00    -0.015 C 
HETATM    3  C   LIG     1      18.491  38.830  20.651  1.00  0.00     0.004 C 
HETATM    4  C   LIG     1      18.313  39.439  22.045  1.00  0.00     0.000 C 
HETATM    5  C   LIG     1      17.000  38.971  22.678  1.00  0.00     0.000 C 
HETATM    6  C   LIG     1      16.947  37.442  22.752  1.00  0.00     0.004 C 
HETATM    7  C   LIG     1      17.122  36.803  21.358  1.00  0.00    -0.015 C 
HETATM    8  C   LIG     1      17.069  35.272  21.491  1.00  0.00     0.010 C 
ENDROOT
TORSDOF 0
ENDMDL
MODEL 9
REMARK VINA RESULT:      -5.5      2.821      4.100
REMARK  0 active torsions:
REMARK  status: ('A' for Active; 'I' for Inactive)
ROOT
HETATM    1  C   LIG     1      17.004  35.311  21.403  1.00  0.00     0.010 C 
HETATM    2  C   LIG     1      17.092  36.843  21.310  1.00  0.00    -0.015 C 
HETATM    3  C   LIG     1      16.915  37.451  22.717  1.00  0.00     0.004 C 
HETATM    4  C   LIG     1      17.002  38.979  22.683  1.00  0.00     0.000 C 
HETATM    5  C   LIG     1      18.332  39.434  22.079  1.00  0.00     0.000 C 
HETATM    6  C   LIG     1      18.516  38.858  20.672  1.00  0.00     0.004 C 
HETATM    7  C   LIG     1      18.435  37.316  20.679  1.00  0.00    -0.015 C 
HETATM    8  C   LIG     1      18.618  36.792  19.245  1.00  0.00     0.010 C 
ENDROOT
TORSDOF 0
ENDMDL
MODEL 10
REMARK VINA RESULT:      -5.3      1.810      3.780
REMARK  0 active torsions:
REMARK  status: ('A' for Active; 'I' for Inactive)
ROOT
HETATM    1  C   LIG     1      18.419  39.315  21.994  1.00  0.00     0.010 C 
HETATM    2  C   LIG     1      17.512  38.074  22.019  1.00  0.00    -0.015 C 
HETATM    3  C   LIG     1      17.882  37.148  20.842  1.00  0.00     0.004 C 
HETATM    4  C   LIG     1      17.012  35.888  20.824  1.00  0.00     0.000 C 
HETATM    5  C   LIG     1      17.130  35.128  22.146  1.00  0.00     0.000 C 
HETATM    6  C   LIG     1      16.745  36.026  23.327  1.00  0.00     0.004 C 
HETATM    7  C   LIG     1      17.612  37.302  23.369  1.00  0.00    -0.015 C 
HETATM    8  C   LIG     1      17.180  38.169  24.564  1.00  0.00     0.010 C 
ENDROOT
TORSDOF 0
ENDMDL
MODEL 11
REMARK VINA RESULT:      -5.3      0.950      2.951
REMARK  0 active torsions:
REMARK  status: ('A' for Active; 'I' for Inactive)
ROOT
HETATM    1  C   LIG     1      17.514  34.853  25.231  1.00  0.00     0.010 C 
HETATM    2  C   LIG     1      17.064  36.158  24.554  1.00  0.00    -0.015 C 
HETATM    3  C   LIG     1      17.843  37.343  25.163  1.00  0.00     0.004 C 
HETATM    4  C   LIG     1      17.439  38.670  24.517  1.00  0.00     0.000 C 
HETATM    5  C   LIG     1      17.652  38.625  23.002  1.00  0.00     0.000 C 
HETATM    6  C   LIG     1      16.868  37.467  22.377  1.00  0.00     0.004 C 
HETATM    7  C   LIG     1      17.260  36.115  23.009  1.00  0.00    -0.015 C 
HETATM    8  C   LIG     1      16.440  34.991  22.353  1.00  0.00     0.010 C 
ENDROOT
TORSDOF 0
ENDMDL
MODEL 12
REMARK VINA RESULT:      -5.2      0.987      2.862
REMARK  0 active torsions:
REMARK  status: ('A' for Active; 'I' for Inactive)
ROOT
HETATM    1  C   LIG     1      16.377  35.002  22.264  1.00  0.00     0.010 C 
HETATM    2  C   LIG     1      17.237  36.105  22.902  1.00  0.00    -0.015 C 
HETATM    3  C   LIG     1      16.903  37.458  22.238  1.00  0.00     0.004 C 
HETATM    4  C   LIG     1      17.727  38.598  22.844  1.00  0.00     0.000 C 
HETATM    5  C   LIG     1      17.505  38.686  24.355  1.00  0.00     0.000 C 
HETATM    6  C   LIG     1      17.853  37.357  25.034  1.00  0.00     0.004 C 
HETATM    7  C   LIG     1      17.032  36.191  24.443  1.00  0.00    -0.015 C 
HETATM    8  C   LIG     1      17.424  34.884  25.153  1.00  0.00     0.010 C 
ENDROOT
TORSDOF 0
ENDMDL
MODEL 13
REMARK VINA RESULT:      -5.2      2.820      4.241
REMARK  0 active torsions:
REMARK  status: ('A' for Active; 'I' for Inactive)
ROOT
HETATM    1  C   LIG     1      17.066  39.277  23.090  1.00  0.00     0.010 C 
HETATM    2  C   LIG     1      17.493  37.943  22.455  1.00  0.00    -0.015 C 
HETATM    3  C   LIG     1      16.332  36.932  22.565  1.00  0.00     0.004 C 
HETATM    4  C   LIG     1      16.702  35.585  21.939  1.00  0.00     0.000 C 
HETATM    5  C   LIG     1      17.109  35.759  20.475  1.00  0.00     0.000 C 
HETATM    6  C   LIG     1      18.275  36.744  20.348  1.00  0.00     0.004 C 
HETATM    7  C   LIG     1      17.927  38.114  20.969  1.00  0.00    -0.015 C 
HETATM    8  C   LIG     1      19.132  39.058  20.822  1.00  0.00     0.010 C 
ENDROOT
TORSDOF 0
ENDMDL
MODEL 14
REMARK VINA RESULT:      -5.0      9.341     10.810
REMARK  0 active torsions:
REMARK  status: ('A' for Active; 'I' for Inactive)
ROOT
HETATM    1  C   LIG     1      15.369  29.980  13.694  1.00  0.00     0.010 C 
HETATM    2  C   LIG     1      14.693  31.003  14.621  1.00  0.00    -0.015 C 
HETATM    3  C   LIG     1      13.667  30.279  15.518  1.00  0.00     0.004 C 
HETATM    4  C   LIG     1      12.969  31.253  16.470  1.00  0.00     0.000 C 
HETATM    5  C   LIG     1      13.991  31.994  17.335  1.00  0.00     0.000 C 
HETATM    6  C   LIG     1      15.005  32.738  16.461  1.00  0.00     0.004 C 
HETATM    7  C   LIG     1      15.727  31.776  15.493  1.00  0.00    -0.015 C 
HETATM    8  C   LIG     1      16.725  32.573  14.637  1.00  0.00     0.010 C 
ENDROOT
TORSDOF 0
ENDMDL
MODEL 15
REMARK VINA RESULT:      -4.6      9.347     11.017
REMARK  0 active torsions:
REMARK  status: ('A' for Active; 'I' for Inactive)
ROOT
HETATM    1  C   LIG     1      12.902  30.599  16.745  1.00  0.00     0.010 C 
HETATM    2  C   LIG     1      13.894  31.425  15.910  1.00  0.00    -0.015 C 
HETATM    3  C   LIG     1      14.691  32.360  16.844  1.00  0.00     0.004 C 
HETATM    4  C   LIG     1      15.702  33.203  16.063  1.00  0.00     0.000 C 
HETATM    5  C   LIG     1      16.660  32.309  15.273  1.00  0.00     0.000 C 
HETATM    6  C   LIG     1      15.887  31.389  14.324  1.00  0.00     0.004 C 
HETATM    7  C   LIG     1      14.862  30.524  15.088  1.00  0.00    -0.015 C 
HETATM    8  C   LIG     1      14.110  29.628  14.090  1.00  0.00     0.010 C 
ENDROOT
TORSDOF 0
ENDMDL
MODEL 16
REMARK VINA RESULT:      -3.6     15.154     16.558
REMARK  0 active torsions:
REMARK  status: ('A' for Active; 'I' for Inactive)
ROOT
HETATM    1  C   LIG     1      26.183  31.765  38.129  1.00  0.00     0.010 C 
HETATM    2  C   LIG     1      26.891  30.958  37.028  1.00  0.00    -0.015 C 
HETATM    3  C   LIG     1      25.946  30.812  35.817  1.00  0.00     0.004 C 
HETATM    4  C   LIG     1      26.606  30.022  34.684  1.00  0.00     0.000 C 
HETATM    5  C   LIG     1      27.916  30.683  34.251  1.00  0.00     0.000 C 
HETATM    6  C   LIG     1      28.876  30.816  35.438  1.00  0.00     0.004 C 
HETATM    7  C   LIG     1      28.235  31.613  36.594  1.00  0.00    -0.015 C 
HETATM    8  C   LIG     1      29.235  31.710  37.758  1.00  0.00     0.010 C 
ENDROOT
TORSDOF 0
ENDMDL
MODEL 17
REMARK VINA RESULT:      -3.5     16.295     18.019
REMARK  0 active torsions:
REMARK  status: ('A' for Active; 'I' for Inactive)
ROOT
HETATM    1  C   LIG     1      19.311  20.851  35.485  1.00  0.00     0.010 C 
HETATM    2  C   LIG     1      20.288  22.029  35.628  1.00  0.00    -0.015 C 
HETATM    3  C   LIG     1      21.411  21.642  36.614  1.00  0.00     0.004 C 
HETATM    4  C   LIG     1      22.420  22.780  36.788  1.00  0.00     0.000 C 
HETATM    5  C   LIG     1      23.021  23.184  35.440  1.00  0.00     0.000 C 
HETATM    6  C   LIG     1      21.922  23.591  34.454  1.00  0.00     0.004 C 
HETATM    7  C   LIG     1      20.892  22.459  34.258  1.00  0.00    -0.015 C 
HETATM    8  C   LIG     1      19.810  22.923  33.269  1.00  0.00     0.010 C 
ENDROOT
TORSDOF 0
ENDMDL
MODEL 18
REMARK VINA RESULT:      -3.4     15.182     16.777
REMARK  0 active torsions:
REMARK  status: ('A' for Active; 'I' for Inactive)
ROOT
HETATM    1  C   LIG     1      29.994  31.146  35.692  1.00  0.00     0.010 C 
HETATM    2  C   LIG     1      28.496  31.419  35.903  1.00  0.00    -0.015 C 
HETATM    3  C   LIG     1      27.674  30.314  35.206  1.00  0.00     0.004 C 
HETATM    4  C   LIG     1      26.171  30.532  35.392  1.00  0.00     0.000 C 
HETATM    5  C   LIG     1      25.811  30.596  36.878  1.00  0.00     0.000 C 
HETATM    6  C   LIG     1      26.602  31.703  37.582  1.00  0.00     0.004 C 
HETATM    7  C   LIG     1      28.123  31.503  37.413  1.00  0.00    -0.015 C 
HETATM    8  C   LIG     1      28.866  32.643  38.129  1.00  0.00     0.010 C 
ENDROOT
TORSDOF 0
ENDMDL
MODEL 19
REMARK VINA RESULT:      -3.4     15.033     16.850
REMARK  0 active torsions:
REMARK  status: ('A' for Active; 'I' for Inactive)
ROOT
HETATM    1  C   LIG     1      29.592  32.341  37.812  1.00  0.00     0.010 C 
HETATM    2  C   LIG     1      28.461  31.465  37.248  1.00  0.00    -0.015 C 
HETATM    3  C   LIG     1      27.101  32.034  37.703  1.00  0.00     0.004 C 
HETATM    4  C   LIG     1      25.935  31.202  37.162  1.00  0.00     0.000 C 
HETATM    5  C   LIG     1      25.987  31.124  35.635  1.00  0.00     0.000 C 
HETATM    6  C   LIG     1      27.323  30.540  35.165  1.00  0.00     0.004 C 
HETATM    7  C   LIG     1      28.516  31.364  35.695  1.00  0.00    -0.015 C 
HETATM    8  C   LIG     1      29.828  30.732  35.202  1.00  0.00     0.010 C 
ENDROOT
TORSDOF 0
ENDMDL
MODEL 20
REMARK VINA RESULT:      -3.4     15.040     16.589
REMARK  0 active torsions:
REMARK  status: ('A' for Active; 'I' for Inactive)
ROOT
HETATM    1  C   LIG     1      22.057  22.823  21.300  1.00  0.00     0.010 C 
HETATM    2  C   LIG     1      23.144  22.080  20.506  1.00  0.00    -0.015 C 
HETATM    3  C   LIG     1      22.723  21.992  19.024  1.00  0.00     0.004 C 
HETATM    4  C   LIG     1      23.777  21.266  18.184  1.00  0.00     0.000 C 
HETATM    5  C   LIG     1      25.137  21.956  18.304  1.00  0.00     0.000 C 
HETATM    6  C   LIG     1      25.581  22.033  19.768  1.00  0.00     0.004 C 
HETATM    7  C   LIG     1      24.536  22.765  20.636  1.00  0.00    -0.015 C 
HETATM    8  C   LIG     1      25.027  22.806  22.093  1.00  0.00     0.010 C 
ENDROOT
TORSDOF 0
ENDMDL
