REMARK  0 active torsions:
REMARK  status: ('A' for Active; 'I' for Inactive)
ROOT
HETATM    1  C   LIG     1      -0.015   2.259   0.646  1.00  0.00     0.010 C 
HETATM    2  C   LIG     1       0.262   0.915  -0.047  1.00  0.00    -0.015 C 
HETATM    3  C   LIG     1       1.523   0.274   0.570  1.00  0.00     0.004 C 
HETATM    4  C   LIG     1       1.841  -1.075  -0.080  1.00  0.00     0.000 C 
HETATM    5  C   LIG     1       0.653  -2.031   0.043  1.00  0.00     0.000 C 
HETATM    6  C   LIG     1      -0.604  -1.420  -0.584  1.00  0.00     0.004 C 
HETATM    7  C   LIG     1      -0.949  -0.059   0.057  1.00  0.00    -0.015 C 
HETATM    8  C   LIG     1      -2.210   0.512  -0.613  1.00  0.00     0.010 C 
ENDROOT
TORSDOF 0
