REMARK  8 active torsions:
REMARK  status: ('A' for Active; 'I' for Inactive)
REMARK    1  A    between atoms: O_1  and  C_2 
REMARK    2  A    between atoms: C_5  and  O_6 
REMARK    3  A    between atoms: O_6  and  C_7 
REMARK    4  A    between atoms: C_11  and  C_12 
REMARK    5  A    between atoms: C_12  and  CA_13 
REMARK    6  A    between atoms: CA_13  and  C_15 
REMARK    7  A    between atoms: CA_13  and  N_14 
REMARK    8  A    between atoms: C_15  and  O_16 
ROOT
HETATM    1  C   LIG     1       0.690  -1.602  -0.012  1.00  0.00     0.109 A 
HETATM    2  C   LIG     1       0.075  -1.276  -1.235  1.00  0.00     0.042 A 
HETATM    3  I   LIG     1       1.190  -1.100  -3.026  1.00  0.00    -0.042 I 
HETATM    4  C   LIG     1      -1.311  -1.099  -1.293  1.00  0.00     0.028 A 
HETATM    5  C   LIG     1      -2.099  -1.238  -0.139  1.00  0.00    -0.053 A 
HETATM    6  C   LIG     1      -1.482  -1.607   1.068  1.00  0.00     0.028 A 
HETATM    7  C   LIG     1      -0.097  -1.786   1.133  1.00  0.00     0.042 A 
HETATM    8  I   LIG     1       0.787  -2.303   2.981  1.00  0.00    -0.042 I 
ENDROOT
BRANCH   1   9
HETATM    9  O   LIG     1       2.077  -1.764   0.073  1.00  0.00    -0.308 OA
BRANCH   9  10
HETATM   10  C   LIG     1       2.998  -0.710  -0.025  1.00  0.00     0.077 A 
HETATM   11  C   LIG     1       4.358  -1.019  -0.120  1.00  0.00     0.040 A 
HETATM   12  C   LIG     1       5.310  -0.001  -0.220  1.00  0.00     0.040 A 
HETATM   13  C   LIG     1       4.916   1.341  -0.222  1.00  0.00     0.082 A 
HETATM   14  C   LIG     1       3.547   1.663  -0.118  1.00  0.00     0.042 A 
HETATM   15  C   LIG     1       2.598   0.639  -0.017  1.00  0.00     0.058 A 
HETATM   16  I   LIG     1       2.845   3.662  -0.107  1.00  0.00    -0.042 I 
BRANCH  13  17
HETATM   17  O   LIG     1       5.900   2.324  -0.326  1.00  0.00    -0.359 OA
HETATM   18  H   LIG     1       5.690   3.313  -0.334  1.00  0.00     0.217 HD
ENDBRANCH  13  17
ENDBRANCH   9  10
ENDBRANCH   1   9
BRANCH   5  19
HETATM   19  C   LIG     1      -3.598  -1.039  -0.200  1.00  0.00     0.085 C 
BRANCH  19  20
HETATM   20  CA  LIG     1      -4.086   0.365   0.256  1.00  0.00     0.318 C 
BRANCH  20  21
HETATM   21  C   LIG     1      -3.744   1.488  -0.696  1.00  0.00     0.174 C 
HETATM   22  OXT LIG     1      -3.103   1.274  -1.758  1.00  0.00    -0.648 OA
BRANCH  21  23
HETATM   23  O   LIG     1      -4.166   2.785  -0.417  1.00  0.00    -0.775 OA
HETATM   24  H   LIG     1      -4.702   2.995   0.417  1.00  0.00     0.167 HD
ENDBRANCH  21  23
ENDBRANCH  20  21
BRANCH  20  25
HETATM   25  N   LIG     1      -3.627   0.703   1.605  1.00  0.00     0.093 N 
HETATM   26  H1  LIG     1      -2.589   0.828   1.608  1.00  0.00     0.314 HD
HETATM   27  H2  LIG     1      -3.869  -0.078   2.258  1.00  0.00     0.314 HD
ENDBRANCH  20  25
ENDBRANCH  19  20
ENDBRANCH   5  19
TORSDOF 8
