MODEL 1
REMARK VINA RESULT:      -4.9      0.000      0.000
REMARK  8 active torsions:
REMARK  status: ('A' for Active; 'I' for Inactive)
REMARK    1  A    between atoms: O_1  and  C_2 
REMARK    2  A    between atoms: C_5  and  O_6 
REMARK    3  A    between atoms: O_6  and  C_7 
REMARK    4  A    between atoms: C_11  and  C_12 
REMARK    5  A    between atoms: C_12  and  CA_13 
REMARK    6  A    between atoms: CA_13  and  C_15 
REMARK    7  A    between atoms: CA_13  and  N_14 
REMARK    8  A    between atoms: C_15  and  O_16 
ROOT
HETATM    1  C   LIG     1      28.198  28.478  33.417  1.00  0.00     0.109 A 
HETATM    2  C   LIG     1      27.214  28.004  34.304  1.00  0.00     0.042 A 
HETATM    3  I   LIG     1      26.857  25.934  34.564  1.00  0.00    -0.042 I 
HETATM    4  C   LIG     1      26.471  28.909  35.069  1.00  0.00     0.028 A 
HETATM    5  C   LIG     1      26.693  30.291  34.957  1.00  0.00    -0.053 A 
HETATM    6  C   LIG     1      27.708  30.752  34.103  1.00  0.00     0.028 A 
HETATM    7  C   LIG     1      28.455  29.853  33.336  1.00  0.00     0.042 A 
HETATM    8  I   LIG     1      29.944  30.600  32.036  1.00  0.00    -0.042 I 
ENDROOT
BRANCH   1   9
HETATM    9  O   LIG     1      28.939  27.591  32.628  1.00  0.00    -0.308 OA
BRANCH   9  10
HETATM   10  C   LIG     1      28.426  26.922  31.507  1.00  0.00     0.077 A 
HETATM   11  C   LIG     1      27.690  27.654  30.571  1.00  0.00     0.040 A 
HETATM   12  C   LIG     1      27.161  27.028  29.439  1.00  0.00     0.040 A 
HETATM   13  C   LIG     1      27.357  25.659  29.229  1.00  0.00     0.082 A 
HETATM   14  C   LIG     1      28.091  24.910  30.172  1.00  0.00     0.042 A 
HETATM   15  C   LIG     1      28.618  25.542  31.304  1.00  0.00     0.058 A 
HETATM   16  I   LIG     1      28.442  22.832  29.951  1.00  0.00    -0.042 I 
BRANCH  13  17
HETATM   17  O   LIG     1      26.813  25.076  28.085  1.00  0.00    -0.359 OA
HETATM   18  H   LIG     1      26.522  24.109  28.046  1.00  0.00     0.217 HD
ENDBRANCH  13  17
ENDBRANCH   9  10
ENDBRANCH   1   9
BRANCH   5  19
HETATM   19  C   LIG     1      25.884  31.271  35.779  1.00  0.00     0.085 C 
BRANCH  19  20
HETATM   20  CA  LIG     1      26.207  31.266  37.300  1.00  0.00     0.318 C 
BRANCH  20  21
HETATM   21  C   LIG     1      27.679  31.170  37.629  1.00  0.00     0.174 C 
HETATM   22  OXT LIG     1      28.447  32.157  37.489  1.00  0.00    -0.648 OA
BRANCH  21  23
HETATM   23  O   LIG     1      28.202  29.978  38.124  1.00  0.00    -0.775 OA
HETATM   24  H   LIG     1      29.179  29.740  37.996  1.00  0.00     0.167 HD
ENDBRANCH  21  23
ENDBRANCH  20  21
BRANCH  20  25
HETATM   25  N   LIG     1      25.470  30.226  38.022  1.00  0.00     0.093 N 
HETATM   26  H1  LIG     1      26.137  29.521  38.412  1.00  0.00     0.314 HD
HETATM   27  H2  LIG     1      24.823  29.739  37.360  1.00  0.00     0.314 HD
ENDBRANCH  20  25
ENDBRANCH  19  20
ENDBRANCH   5  19
TORSDOF 8
ENDMDL
MODEL 2
REMARK VINA RESULT:      -4.8      0.391      2.109
REMARK  8 active torsions:
REMARK  status: ('A' for Active; 'I' for Inactive)
REMARK    1  A    between atoms: O_1  and  C_2 
REMARK    2  A    between atoms: C_5  and  O_6 
REMARK    3  A    between atoms: O_6  and  C_7 
REMARK    4  A    between atoms: C_11  and  C_12 
REMARK    5  A    between atoms: C_12  and  CA_13 
REMARK    6  A    between atoms: CA_13  and  C_15 
REMARK    7  A    between atoms: CA_13  and  N_14 
REMARK    8  A    between atoms: C_15  and  O_16 
ROOT
HETATM    1  C   LIG     1      28.285  28.639  33.449  1.00  0.00     0.109 A 
HETATM    2  C   LIG     1      28.478  30.031  33.362  1.00  0.00     0.042 A 
HETATM    3  I   LIG     1      29.908  30.873  32.048  1.00  0.00    -0.042 I 
HETATM    4  C   LIG     1      27.686  30.894  34.127  1.00  0.00     0.028 A 
HETATM    5  C   LIG     1      26.701  30.386  34.989  1.00  0.00    -0.053 A 
HETATM    6  C   LIG     1      26.485  28.998  35.036  1.00  0.00     0.028 A 
HETATM    7  C   LIG     1      27.273  28.130  34.274  1.00  0.00     0.042 A 
HETATM    8  I   LIG     1      26.934  26.049  34.410  1.00  0.00    -0.042 I 
ENDROOT
BRANCH   1   9
HETATM    9  O   LIG     1      29.078  27.757  32.709  1.00  0.00    -0.308 OA
BRANCH   9  10
HETATM   10  C   LIG     1      28.661  27.131  31.525  1.00  0.00     0.077 A 
HETATM   11  C   LIG     1      27.748  27.798  30.703  1.00  0.00     0.040 A 
HETATM   12  C   LIG     1      27.305  27.212  29.514  1.00  0.00     0.040 A 
HETATM   13  C   LIG     1      27.766  25.947  29.132  1.00  0.00     0.082 A 
HETATM   14  C   LIG     1      28.680  25.262  29.959  1.00  0.00     0.042 A 
HETATM   15  C   LIG     1      29.119  25.854  31.149  1.00  0.00     0.058 A 
HETATM   16  I   LIG     1      29.435  23.343  29.476  1.00  0.00    -0.042 I 
BRANCH  13  17
HETATM   17  O   LIG     1      27.299  25.401  27.937  1.00  0.00    -0.359 OA
HETATM   18  H   LIG     1      26.844  25.953  27.222  1.00  0.00     0.217 HD
ENDBRANCH  13  17
ENDBRANCH   9  10
ENDBRANCH   1   9
BRANCH   5  19
HETATM   19  C   LIG     1      25.849  31.319  35.822  1.00  0.00     0.085 C 
BRANCH  19  20
HETATM   20  CA  LIG     1      26.184  31.322  37.340  1.00  0.00     0.318 C 
BRANCH  20  21
HETATM   21  C   LIG     1      27.657  31.203  37.658  1.00  0.00     0.174 C 
HETATM   22  OXT LIG     1      28.436  32.183  37.530  1.00  0.00    -0.648 OA
BRANCH  21  23
HETATM   23  O   LIG     1      28.168  29.997  38.129  1.00  0.00    -0.775 OA
HETATM   24  H   LIG     1      27.596  29.161  38.162  1.00  0.00     0.167 HD
ENDBRANCH  21  23
ENDBRANCH  20  21
BRANCH  20  25
HETATM   25  N   LIG     1      25.435  30.304  38.078  1.00  0.00     0.093 N 
HETATM   26  H1  LIG     1      25.792  30.238  39.059  1.00  0.00     0.314 HD
HETATM   27  H2  LIG     1      25.566  29.375  37.614  1.00  0.00     0.314 HD
ENDBRANCH  20  25
ENDBRANCH  19  20
ENDBRANCH   5  19
TORSDOF 8
ENDMDL
MODEL 3
REMARK VINA RESULT:      -4.7      3.129      8.075
REMARK  8 active torsions:
REMARK  status: ('A' for Active; 'I' for Inactive)
REMARK    1  A    between atoms: O_1  and  C_2 
REMARK    2  A    between atoms: C_5  and  O_6 
REMARK    3  A    between atoms: O_6  and  C_7 
REMARK    4  A    between atoms: C_11  and  C_12 
REMARK    5  A    between atoms: C_12  and  CA_13 
REMARK    6  A    between atoms: CA_13  and  C_15 
REMARK    7  A    between atoms: CA_13  and  N_14 
REMARK    8  A    between atoms: C_15  and  O_16 
ROOT
HETATM    1  C   LIG     1      28.395  27.714  32.677  1.00  0.00     0.109 A 
HETATM    2  C   LIG     1      28.698  28.397  31.485  1.00  0.00     0.042 A 
HETATM    3  I   LIG     1      29.936  30.114  31.472  1.00  0.00    -0.042 I 
HETATM    4  C   LIG     1      28.208  27.919  30.265  1.00  0.00     0.028 A 
HETATM    5  C   LIG     1      27.410  26.765  30.217  1.00  0.00    -0.053 A 
HETATM    6  C   LIG     1      27.150  26.065  31.407  1.00  0.00     0.028 A 
HETATM    7  C   LIG     1      27.637  26.537  32.630  1.00  0.00     0.042 A 
HETATM    8  I   LIG     1      27.186  25.469  34.396  1.00  0.00    -0.042 I 
ENDROOT
BRANCH   1   9
HETATM    9  O   LIG     1      28.858  28.185  33.911  1.00  0.00    -0.308 OA
BRANCH   9  10
HETATM   10  C   LIG     1      28.185  29.138  34.690  1.00  0.00     0.077 A 
HETATM   11  C   LIG     1      26.828  29.366  34.440  1.00  0.00     0.040 A 
HETATM   12  C   LIG     1      26.118  30.305  35.193  1.00  0.00     0.040 A 
HETATM   13  C   LIG     1      26.755  31.033  36.203  1.00  0.00     0.082 A 
HETATM   14  C   LIG     1      28.125  30.816  36.457  1.00  0.00     0.042 A 
HETATM   15  C   LIG     1      28.831  29.875  35.699  1.00  0.00     0.058 A 
HETATM   16  I   LIG     1      29.185  31.868  37.960  1.00  0.00    -0.042 I 
BRANCH  13  17
HETATM   17  O   LIG     1      26.006  31.958  36.931  1.00  0.00    -0.359 OA
HETATM   18  H   LIG     1      24.997  32.000  36.893  1.00  0.00     0.217 HD
ENDBRANCH  13  17
ENDBRANCH   9  10
ENDBRANCH   1   9
BRANCH   5  19
HETATM   19  C   LIG     1      26.874  26.253  28.898  1.00  0.00     0.085 C 
BRANCH  19  20
HETATM   20  CA  LIG     1      26.874  24.704  28.754  1.00  0.00     0.318 C 
BRANCH  20  21
HETATM   21  C   LIG     1      28.209  24.110  28.367  1.00  0.00     0.174 C 
HETATM   22  OXT LIG     1      29.083  23.845  29.233  1.00  0.00    -0.648 OA
BRANCH  21  23
HETATM   23  O   LIG     1      28.477  23.820  27.032  1.00  0.00    -0.775 OA
HETATM   24  H   LIG     1      29.408  23.927  26.648  1.00  0.00     0.167 HD
ENDBRANCH  21  23
ENDBRANCH  20  21
BRANCH  20  25
HETATM   25  N   LIG     1      25.836  24.231  27.835  1.00  0.00     0.093 N 
HETATM   26  H1  LIG     1      26.054  23.257  27.523  1.00  0.00     0.314 HD
HETATM   27  H2  LIG     1      25.811  24.851  26.993  1.00  0.00     0.314 HD
ENDBRANCH  20  25
ENDBRANCH  19  20
ENDBRANCH   5  19
TORSDOF 8
ENDMDL
MODEL 4
REMARK VINA RESULT:      -4.7      3.137      7.757
REMARK  8 active torsions:
REMARK  status: ('A' for Active; 'I' for Inactive)
REMARK    1  A    between atoms: O_1  and  C_2 
REMARK    2  A    between atoms: C_5  and  O_6 
REMARK    3  A    between atoms: O_6  and  C_7 
REMARK    4  A    between atoms: C_11  and  C_12 
REMARK    5  A    between atoms: C_12  and  CA_13 
REMARK    6  A    between atoms: CA_13  and  C_15 
REMARK    7  A    between atoms: CA_13  and  N_14 
REMARK    8  A    between atoms: C_15  and  O_16 
ROOT
HETATM    1  C   LIG     1      28.371  27.794  32.715  1.00  0.00     0.109 A 
HETATM    2  C   LIG     1      27.546  26.654  32.679  1.00  0.00     0.042 A 
HETATM    3  I   LIG     1      26.935  25.670  34.451  1.00  0.00    -0.042 I 
HETATM    4  C   LIG     1      27.079  26.170  31.453  1.00  0.00     0.028 A 
HETATM    5  C   LIG     1      27.429  26.808  30.252  1.00  0.00    -0.053 A 
HETATM    6  C   LIG     1      28.216  27.970  30.301  1.00  0.00     0.028 A 
HETATM    7  C   LIG     1      28.686  28.460  31.523  1.00  0.00     0.042 A 
HETATM    8  I   LIG     1      29.898  30.191  31.539  1.00  0.00    -0.042 I 
ENDROOT
BRANCH   1   9
HETATM    9  O   LIG     1      28.866  28.284  33.928  1.00  0.00    -0.308 OA
BRANCH   9  10
HETATM   10  C   LIG     1      28.198  29.226  34.725  1.00  0.00     0.077 A 
HETATM   11  C   LIG     1      26.844  29.468  34.480  1.00  0.00     0.040 A 
HETATM   12  C   LIG     1      26.140  30.398  35.250  1.00  0.00     0.040 A 
HETATM   13  C   LIG     1      26.782  31.103  36.273  1.00  0.00     0.082 A 
HETATM   14  C   LIG     1      28.150  30.873  36.522  1.00  0.00     0.042 A 
HETATM   15  C   LIG     1      28.851  29.941  35.747  1.00  0.00     0.058 A 
HETATM   16  I   LIG     1      29.218  31.890  38.043  1.00  0.00    -0.042 I 
BRANCH  13  17
HETATM   17  O   LIG     1      26.040  32.020  37.017  1.00  0.00    -0.359 OA
HETATM   18  H   LIG     1      25.813  32.946  36.680  1.00  0.00     0.217 HD
ENDBRANCH  13  17
ENDBRANCH   9  10
ENDBRANCH   1   9
BRANCH   5  19
HETATM   19  C   LIG     1      26.930  26.279  28.924  1.00  0.00     0.085 C 
BRANCH  19  20
HETATM   20  CA  LIG     1      26.850  24.730  28.830  1.00  0.00     0.318 C 
BRANCH  20  21
HETATM   21  C   LIG     1      28.181  24.045  28.620  1.00  0.00     0.174 C 
HETATM   22  OXT LIG     1      28.868  24.252  27.587  1.00  0.00    -0.648 OA
BRANCH  21  23
HETATM   23  O   LIG     1      28.679  23.186  29.596  1.00  0.00    -0.775 OA
HETATM   24  H   LIG     1      28.439  22.202  29.603  1.00  0.00     0.167 HD
ENDBRANCH  21  23
ENDBRANCH  20  21
BRANCH  20  25
HETATM   25  N   LIG     1      25.897  24.282  27.813  1.00  0.00     0.093 N 
HETATM   26  H1  LIG     1      26.358  23.601  27.166  1.00  0.00     0.314 HD
HETATM   27  H2  LIG     1      25.576  25.106  27.253  1.00  0.00     0.314 HD
ENDBRANCH  20  25
ENDBRANCH  19  20
ENDBRANCH   5  19
TORSDOF 8
ENDMDL
MODEL 5
REMARK VINA RESULT:      -4.5      7.586     11.049
REMARK  8 active torsions:
REMARK  status: ('A' for Active; 'I' for Inactive)
REMARK    1  A    between atoms: O_1  and  C_2 
REMARK    2  A    between atoms: C_5  and  O_6 
REMARK    3  A    between atoms: O_6  and  C_7 
REMARK    4  A    between atoms: C_11  and  C_12 
REMARK    5  A    between atoms: C_12  and  CA_13 
REMARK    6  A    between atoms: CA_13  and  C_15 
REMARK    7  A    between atoms: CA_13  and  N_14 
REMARK    8  A    between atoms: C_15  and  O_16 
ROOT
HETATM    1  C   LIG     1      25.635  22.209  24.270  1.00  0.00     0.109 A 
HETATM    2  C   LIG     1      24.918  22.171  25.481  1.00  0.00     0.042 A 
HETATM    3  I   LIG     1      23.507  20.646  25.888  1.00  0.00    -0.042 I 
HETATM    4  C   LIG     1      25.160  23.134  26.465  1.00  0.00     0.028 A 
HETATM    5  C   LIG     1      26.110  24.147  26.256  1.00  0.00    -0.053 A 
HETATM    6  C   LIG     1      26.852  24.151  25.064  1.00  0.00     0.028 A 
HETATM    7  C   LIG     1      26.616  23.190  24.076  1.00  0.00     0.042 A 
HETATM    8  I   LIG     1      27.732  23.263  22.283  1.00  0.00    -0.042 I 
ENDROOT
BRANCH   1   9
HETATM    9  O   LIG     1      25.395  21.267  23.264  1.00  0.00    -0.308 OA
BRANCH   9  10
HETATM   10  C   LIG     1      24.604  21.512  22.132  1.00  0.00     0.077 A 
HETATM   11  C   LIG     1      23.519  22.386  22.252  1.00  0.00     0.040 A 
HETATM   12  C   LIG     1      22.705  22.660  21.150  1.00  0.00     0.040 A 
HETATM   13  C   LIG     1      22.961  22.059  19.913  1.00  0.00     0.082 A 
HETATM   14  C   LIG     1      24.047  21.169  19.784  1.00  0.00     0.042 A 
HETATM   15  C   LIG     1      24.859  20.898  20.891  1.00  0.00     0.058 A 
HETATM   16  I   LIG     1      24.518  20.204  17.957  1.00  0.00    -0.042 I 
BRANCH  13  17
HETATM   17  O   LIG     1      22.124  22.363  18.839  1.00  0.00    -0.359 OA
HETATM   18  H   LIG     1      21.417  23.086  18.880  1.00  0.00     0.217 HD
ENDBRANCH  13  17
ENDBRANCH   9  10
ENDBRANCH   1   9
BRANCH   5  19
HETATM   19  C   LIG     1      26.366  25.195  27.318  1.00  0.00     0.085 C 
BRANCH  19  20
HETATM   20  CA  LIG     1      26.817  24.628  28.694  1.00  0.00     0.318 C 
BRANCH  20  21
HETATM   21  C   LIG     1      27.094  25.678  29.745  1.00  0.00     0.174 C 
HETATM   22  OXT LIG     1      27.476  25.362  30.902  1.00  0.00    -0.648 OA
BRANCH  21  23
HETATM   23  O   LIG     1      26.954  27.027  29.430  1.00  0.00    -0.775 OA
HETATM   24  H   LIG     1      27.549  27.469  28.738  1.00  0.00     0.167 HD
ENDBRANCH  21  23
ENDBRANCH  20  21
BRANCH  20  25
HETATM   25  N   LIG     1      27.968  23.730  28.577  1.00  0.00     0.093 N 
HETATM   26  H1  LIG     1      27.694  22.863  28.061  1.00  0.00     0.314 HD
HETATM   27  H2  LIG     1      28.293  23.458  29.533  1.00  0.00     0.314 HD
ENDBRANCH  20  25
ENDBRANCH  19  20
ENDBRANCH   5  19
TORSDOF 8
ENDMDL
MODEL 6
REMARK VINA RESULT:      -4.5      7.667     11.312
REMARK  8 active torsions:
REMARK  status: ('A' for Active; 'I' for Inactive)
REMARK    1  A    between atoms: O_1  and  C_2 
REMARK    2  A    between atoms: C_5  and  O_6 
REMARK    3  A    between atoms: O_6  and  C_7 
REMARK    4  A    between atoms: C_11  and  C_12 
REMARK    5  A    between atoms: C_12  and  CA_13 
REMARK    6  A    between atoms: CA_13  and  C_15 
REMARK    7  A    between atoms: CA_13  and  N_14 
REMARK    8  A    between atoms: C_15  and  O_16 
ROOT
HETATM    1  C   LIG     1      25.677  22.182  24.186  1.00  0.00     0.109 A 
HETATM    2  C   LIG     1      26.606  23.221  23.994  1.00  0.00     0.042 A 
HETATM    3  I   LIG     1      27.690  23.421  22.186  1.00  0.00    -0.042 I 
HETATM    4  C   LIG     1      26.801  24.176  24.997  1.00  0.00     0.028 A 
HETATM    5  C   LIG     1      26.081  24.106  26.201  1.00  0.00    -0.053 A 
HETATM    6  C   LIG     1      25.124  23.091  26.366  1.00  0.00     0.028 A 
HETATM    7  C   LIG     1      24.924  22.134  25.367  1.00  0.00     0.042 A 
HETATM    8  I   LIG     1      23.500  20.605  25.679  1.00  0.00    -0.042 I 
ENDROOT
BRANCH   1   9
HETATM    9  O   LIG     1      25.480  21.205  23.204  1.00  0.00    -0.308 OA
BRANCH   9  10
HETATM   10  C   LIG     1      24.743  21.411  22.028  1.00  0.00     0.077 A 
HETATM   11  C   LIG     1      23.607  22.223  22.086  1.00  0.00     0.040 A 
HETATM   12  C   LIG     1      22.844  22.456  20.939  1.00  0.00     0.040 A 
HETATM   13  C   LIG     1      23.203  21.876  19.718  1.00  0.00     0.082 A 
HETATM   14  C   LIG     1      24.343  21.048  19.651  1.00  0.00     0.042 A 
HETATM   15  C   LIG     1      25.103  20.818  20.803  1.00  0.00     0.058 A 
HETATM   16  I   LIG     1      24.972  20.119  17.853  1.00  0.00    -0.042 I 
BRANCH  13  17
HETATM   17  O   LIG     1      22.414  22.138  18.598  1.00  0.00    -0.359 OA
HETATM   18  H   LIG     1      22.752  22.652  17.796  1.00  0.00     0.217 HD
ENDBRANCH  13  17
ENDBRANCH   9  10
ENDBRANCH   1   9
BRANCH   5  19
HETATM   19  C   LIG     1      26.298  25.135  27.289  1.00  0.00     0.085 C 
BRANCH  19  20
HETATM   20  CA  LIG     1      26.848  24.561  28.626  1.00  0.00     0.318 C 
BRANCH  20  21
HETATM   21  C   LIG     1      27.102  25.597  29.696  1.00  0.00     0.174 C 
HETATM   22  OXT LIG     1      27.490  25.267  30.847  1.00  0.00    -0.648 OA
BRANCH  21  23
HETATM   23  O   LIG     1      26.935  26.948  29.406  1.00  0.00    -0.775 OA
HETATM   24  H   LIG     1      27.576  27.646  29.765  1.00  0.00     0.167 HD
ENDBRANCH  21  23
ENDBRANCH  20  21
BRANCH  20  25
HETATM   25  N   LIG     1      28.049  23.747  28.429  1.00  0.00     0.093 N 
HETATM   26  H1  LIG     1      27.814  22.733  28.532  1.00  0.00     0.314 HD
HETATM   27  H2  LIG     1      28.759  23.998  29.155  1.00  0.00     0.314 HD
ENDBRANCH  20  25
ENDBRANCH  19  20
ENDBRANCH   5  19
TORSDOF 8
ENDMDL
MODEL 7
REMARK VINA RESULT:      -4.5     10.876     14.505
REMARK  8 active torsions:
REMARK  status: ('A' for Active; 'I' for Inactive)
REMARK    1  A    between atoms: O_1  and  C_2 
REMARK    2  A    between atoms: C_5  and  O_6 
REMARK    3  A    between atoms: O_6  and  C_7 
REMARK    4  A    between atoms: C_11  and  C_12 
REMARK    5  A    between atoms: C_12  and  CA_13 
REMARK    6  A    between atoms: CA_13  and  C_15 
REMARK    7  A    between atoms: CA_13  and  N_14 
REMARK    8  A    between atoms: C_15  and  O_16 
ROOT
HETATM    1  C   LIG     1      25.778  21.921  21.277  1.00  0.00     0.109 A 
HETATM    2  C   LIG     1      27.112  21.962  20.833  1.00  0.00     0.042 A 
HETATM    3  I   LIG     1      28.624  20.798  21.750  1.00  0.00    -0.042 I 
HETATM    4  C   LIG     1      27.457  22.757  19.735  1.00  0.00     0.028 A 
HETATM    5  C   LIG     1      26.484  23.521  19.071  1.00  0.00    -0.053 A 
HETATM    6  C   LIG     1      25.147  23.439  19.494  1.00  0.00     0.028 A 
HETATM    7  C   LIG     1      24.795  22.647  20.590  1.00  0.00     0.042 A 
HETATM    8  I   LIG     1      22.776  22.588  21.210  1.00  0.00    -0.042 I 
ENDROOT
BRANCH   1   9
HETATM    9  O   LIG     1      25.414  21.148  22.385  1.00  0.00    -0.308 OA
BRANCH   9  10
HETATM   10  C   LIG     1      25.238  21.664  23.678  1.00  0.00     0.077 A 
HETATM   11  C   LIG     1      25.990  22.779  24.060  1.00  0.00     0.040 A 
HETATM   12  C   LIG     1      25.846  23.326  25.337  1.00  0.00     0.040 A 
HETATM   13  C   LIG     1      24.951  22.764  26.253  1.00  0.00     0.082 A 
HETATM   14  C   LIG     1      24.194  21.634  25.880  1.00  0.00     0.042 A 
HETATM   15  C   LIG     1      24.343  21.090  24.600  1.00  0.00     0.058 A 
HETATM   16  I   LIG     1      22.815  20.704  27.192  1.00  0.00    -0.042 I 
BRANCH  13  17
HETATM   17  O   LIG     1      24.838  23.345  27.517  1.00  0.00    -0.359 OA
HETATM   18  H   LIG     1      24.163  23.038  28.204  1.00  0.00     0.217 HD
ENDBRANCH  13  17
ENDBRANCH   9  10
ENDBRANCH   1   9
BRANCH   5  19
HETATM   19  C   LIG     1      26.859  24.387  17.888  1.00  0.00     0.085 C 
BRANCH  19  20
HETATM   20  CA  LIG     1      28.160  25.218  18.076  1.00  0.00     0.318 C 
BRANCH  20  21
HETATM   21  C   LIG     1      27.972  26.518  18.824  1.00  0.00     0.174 C 
HETATM   22  OXT LIG     1      28.387  27.609  18.354  1.00  0.00    -0.648 OA
BRANCH  21  23
HETATM   23  O   LIG     1      27.302  26.524  20.045  1.00  0.00    -0.775 OA
HETATM   24  H   LIG     1      26.518  27.143  20.210  1.00  0.00     0.167 HD
ENDBRANCH  21  23
ENDBRANCH  20  21
BRANCH  20  25
HETATM   25  N   LIG     1      28.847  25.471  16.808  1.00  0.00     0.093 N 
HETATM   26  H1  LIG     1      28.248  26.065  16.190  1.00  0.00     0.314 HD
HETATM   27  H2  LIG     1      29.025  24.561  16.323  1.00  0.00     0.314 HD
ENDBRANCH  20  25
ENDBRANCH  19  20
ENDBRANCH   5  19
TORSDOF 8
ENDMDL
MODEL 8
REMARK VINA RESULT:      -4.4     10.971     14.509
REMARK  8 active torsions:
REMARK  status: ('A' for Active; 'I' for Inactive)
REMARK    1  A    between atoms: O_1  and  C_2 
REMARK    2  A    between atoms: C_5  and  O_6 
REMARK    3  A    between atoms: O_6  and  C_7 
REMARK    4  A    between atoms: C_11  and  C_12 
REMARK    5  A    between atoms: C_12  and  CA_13 
REMARK    6  A    between atoms: CA_13  and  C_15 
REMARK    7  A    between atoms: CA_13  and  N_14 
REMARK    8  A    between atoms: C_15  and  O_16 
ROOT
HETATM    1  C   LIG     1      25.302  21.530  21.275  1.00  0.00     0.109 A 
HETATM    2  C   LIG     1      26.640  21.346  20.880  1.00  0.00     0.042 A 
HETATM    3  I   LIG     1      27.864  19.862  21.763  1.00  0.00    -0.042 I 
HETATM    4  C   LIG     1      27.178  22.129  19.853  1.00  0.00     0.028 A 
HETATM    5  C   LIG     1      26.396  23.104  19.213  1.00  0.00    -0.053 A 
HETATM    6  C   LIG     1      25.049  23.250  19.583  1.00  0.00     0.028 A 
HETATM    7  C   LIG     1      24.505  22.471  20.609  1.00  0.00     0.042 A 
HETATM    8  I   LIG     1      22.484  22.756  21.155  1.00  0.00    -0.042 I 
ENDROOT
BRANCH   1   9
HETATM    9  O   LIG     1      24.750  20.772  22.313  1.00  0.00    -0.308 OA
BRANCH   9  10
HETATM   10  C   LIG     1      24.601  21.234  23.629  1.00  0.00     0.077 A 
HETATM   11  C   LIG     1      23.626  20.643  24.438  1.00  0.00     0.040 A 
HETATM   12  C   LIG     1      23.443  21.072  25.755  1.00  0.00     0.040 A 
HETATM   13  C   LIG     1      24.230  22.101  26.282  1.00  0.00     0.082 A 
HETATM   14  C   LIG     1      25.211  22.710  25.471  1.00  0.00     0.042 A 
HETATM   15  C   LIG     1      25.388  22.277  24.152  1.00  0.00     0.058 A 
HETATM   16  I   LIG     1      26.451  24.279  26.169  1.00  0.00    -0.042 I 
BRANCH  13  17
HETATM   17  O   LIG     1      24.015  22.496  27.602  1.00  0.00    -0.359 OA
HETATM   18  H   LIG     1      24.457  22.042  28.390  1.00  0.00     0.217 HD
ENDBRANCH  13  17
ENDBRANCH   9  10
ENDBRANCH   1   9
BRANCH   5  19
HETATM   19  C   LIG     1      26.980  23.956  18.107  1.00  0.00     0.085 C 
BRANCH  19  20
HETATM   20  CA  LIG     1      28.137  24.894  18.551  1.00  0.00     0.318 C 
BRANCH  20  21
HETATM   21  C   LIG     1      27.723  25.997  19.498  1.00  0.00     0.174 C 
HETATM   22  OXT LIG     1      27.756  25.837  20.746  1.00  0.00    -0.648 OA
BRANCH  21  23
HETATM   23  O   LIG     1      27.320  27.230  18.990  1.00  0.00    -0.775 OA
HETATM   24  H   LIG     1      27.997  27.946  18.752  1.00  0.00     0.167 HD
ENDBRANCH  21  23
ENDBRANCH  20  21
BRANCH  20  25
HETATM   25  N   LIG     1      28.861  25.465  17.413  1.00  0.00     0.093 N 
HETATM   26  H1  LIG     1      29.340  26.348  17.701  1.00  0.00     0.314 HD
HETATM   27  H2  LIG     1      28.181  25.690  16.650  1.00  0.00     0.314 HD
ENDBRANCH  20  25
ENDBRANCH  19  20
ENDBRANCH   5  19
TORSDOF 8
ENDMDL
MODEL 9
REMARK VINA RESULT:      -4.4     10.975     14.486
REMARK  8 active torsions:
REMARK  status: ('A' for Active; 'I' for Inactive)
REMARK    1  A    between atoms: O_1  and  C_2 
REMARK    2  A    between atoms: C_5  and  O_6 
REMARK    3  A    between atoms: O_6  and  C_7 
REMARK    4  A    between atoms: C_11  and  C_12 
REMARK    5  A    between atoms: C_12  and  CA_13 
REMARK    6  A    between atoms: CA_13  and  C_15 
REMARK    7  A    between atoms: CA_13  and  N_14 
REMARK    8  A    between atoms: C_15  and  O_16 
ROOT
HETATM    1  C   LIG     1      25.427  21.602  21.292  1.00  0.00     0.109 A 
HETATM    2  C   LIG     1      24.582  22.499  20.613  1.00  0.00     0.042 A 
HETATM    3  I   LIG     1      22.555  22.750  21.168  1.00  0.00    -0.042 I 
HETATM    4  C   LIG     1      25.089  23.279  19.569  1.00  0.00     0.028 A 
HETATM    5  C   LIG     1      26.436  23.174  19.185  1.00  0.00    -0.053 A 
HETATM    6  C   LIG     1      27.282  22.308  19.898  1.00  0.00     0.028 A 
HETATM    7  C   LIG     1      26.782  21.526  20.943  1.00  0.00     0.042 A 
HETATM    8  I   LIG     1      28.088  20.211  21.958  1.00  0.00    -0.042 I 
ENDROOT
BRANCH   1   9
HETATM    9  O   LIG     1      24.937  20.797  22.326  1.00  0.00    -0.308 OA
BRANCH   9  10
HETATM   10  C   LIG     1      24.720  21.248  23.637  1.00  0.00     0.077 A 
HETATM   11  C   LIG     1      23.720  20.634  24.397  1.00  0.00     0.040 A 
HETATM   12  C   LIG     1      23.471  21.051  25.707  1.00  0.00     0.040 A 
HETATM   13  C   LIG     1      24.214  22.091  26.274  1.00  0.00     0.082 A 
HETATM   14  C   LIG     1      25.219  22.723  25.513  1.00  0.00     0.042 A 
HETATM   15  C   LIG     1      25.464  22.301  24.200  1.00  0.00     0.058 A 
HETATM   16  I   LIG     1      26.398  24.309  26.275  1.00  0.00    -0.042 I 
BRANCH  13  17
HETATM   17  O   LIG     1      23.932  22.473  27.586  1.00  0.00    -0.359 OA
HETATM   18  H   LIG     1      24.597  22.375  28.342  1.00  0.00     0.217 HD
ENDBRANCH  13  17
ENDBRANCH   9  10
ENDBRANCH   1   9
BRANCH   5  19
HETATM   19  C   LIG     1      26.982  24.013  18.051  1.00  0.00     0.085 C 
BRANCH  19  20
HETATM   20  CA  LIG     1      28.143  24.967  18.449  1.00  0.00     0.318 C 
BRANCH  20  21
HETATM   21  C   LIG     1      27.743  26.086  19.383  1.00  0.00     0.174 C 
HETATM   22  OXT LIG     1      27.649  25.901  20.625  1.00  0.00    -0.648 OA
BRANCH  21  23
HETATM   23  O   LIG     1      27.498  27.359  18.875  1.00  0.00    -0.775 OA
HETATM   24  H   LIG     1      27.715  28.190  19.412  1.00  0.00     0.167 HD
ENDBRANCH  21  23
ENDBRANCH  20  21
BRANCH  20  25
HETATM   25  N   LIG     1      28.835  25.520  17.283  1.00  0.00     0.093 N 
HETATM   26  H1  LIG     1      28.760  26.563  17.285  1.00  0.00     0.314 HD
HETATM   27  H2  LIG     1      28.385  25.157  16.410  1.00  0.00     0.314 HD
ENDBRANCH  20  25
ENDBRANCH  19  20
ENDBRANCH   5  19
TORSDOF 8
ENDMDL
MODEL 10
REMARK VINA RESULT:      -4.3     11.042     16.543
REMARK  8 active torsions:
REMARK  status: ('A' for Active; 'I' for Inactive)
REMARK    1  A    between atoms: O_1  and  C_2 
REMARK    2  A    between atoms: C_5  and  O_6 
REMARK    3  A    between atoms: O_6  and  C_7 
REMARK    4  A    between atoms: C_11  and  C_12 
REMARK    5  A    between atoms: C_12  and  CA_13 
REMARK    6  A    between atoms: CA_13  and  C_15 
REMARK    7  A    between atoms: CA_13  and  N_14 
REMARK    8  A    between atoms: C_15  and  O_16 
ROOT
HETATM    1  C   LIG     1      25.773  21.589  20.740  1.00  0.00     0.109 A 
HETATM    2  C   LIG     1      25.334  22.544  19.805  1.00  0.00     0.042 A 
HETATM    3  I   LIG     1      26.198  24.474  19.700  1.00  0.00    -0.042 I 
HETATM    4  C   LIG     1      24.330  22.213  18.889  1.00  0.00     0.028 A 
HETATM    5  C   LIG     1      23.748  20.935  18.897  1.00  0.00    -0.053 A 
HETATM    6  C   LIG     1      24.223  19.974  19.804  1.00  0.00     0.028 A 
HETATM    7  C   LIG     1      25.227  20.298  20.722  1.00  0.00     0.042 A 
HETATM    8  I   LIG     1      25.881  18.829  22.092  1.00  0.00    -0.042 I 
ENDROOT
BRANCH   1   9
HETATM    9  O   LIG     1      26.762  21.905  21.678  1.00  0.00    -0.308 OA
BRANCH   9  10
HETATM   10  C   LIG     1      26.512  22.561  22.892  1.00  0.00     0.077 A 
HETATM   11  C   LIG     1      25.238  22.455  23.458  1.00  0.00     0.040 A 
HETATM   12  C   LIG     1      24.945  23.092  24.666  1.00  0.00     0.040 A 
HETATM   13  C   LIG     1      25.920  23.849  25.325  1.00  0.00     0.082 A 
HETATM   14  C   LIG     1      27.206  23.969  24.757  1.00  0.00     0.042 A 
HETATM   15  C   LIG     1      27.493  23.329  23.546  1.00  0.00     0.058 A 
HETATM   16  I   LIG     1      28.752  25.094  25.669  1.00  0.00    -0.042 I 
BRANCH  13  17
HETATM   17  O   LIG     1      25.584  24.465  26.530  1.00  0.00    -0.359 OA
HETATM   18  H   LIG     1      24.657  24.817  26.727  1.00  0.00     0.217 HD
ENDBRANCH  13  17
ENDBRANCH   9  10
ENDBRANCH   1   9
BRANCH   5  19
HETATM   19  C   LIG     1      22.656  20.579  17.911  1.00  0.00     0.085 C 
BRANCH  19  20
HETATM   20  CA  LIG     1      22.588  19.073  17.533  1.00  0.00     0.318 C 
BRANCH  20  21
HETATM   21  C   LIG     1      22.220  18.803  16.092  1.00  0.00     0.174 C 
HETATM   22  OXT LIG     1      23.078  18.408  15.260  1.00  0.00    -0.648 OA
BRANCH  21  23
HETATM   23  O   LIG     1      20.903  18.966  15.671  1.00  0.00    -0.775 OA
HETATM   24  H   LIG     1      20.319  19.703  16.048  1.00  0.00     0.167 HD
ENDBRANCH  21  23
ENDBRANCH  20  21
BRANCH  20  25
HETATM   25  N   LIG     1      21.701  18.315  18.419  1.00  0.00     0.093 N 
HETATM   26  H1  LIG     1      22.102  17.367  18.600  1.00  0.00     0.314 HD
HETATM   27  H2  LIG     1      20.769  18.199  17.958  1.00  0.00     0.314 HD
ENDBRANCH  20  25
ENDBRANCH  19  20
ENDBRANCH   5  19
TORSDOF 8
ENDMDL
MODEL 11
REMARK VINA RESULT:      -4.3     10.118     14.074
REMARK  8 active torsions:
REMARK  status: ('A' for Active; 'I' for Inactive)
REMARK    1  A    between atoms: O_1  and  C_2 
REMARK    2  A    between atoms: C_5  and  O_6 
REMARK    3  A    between atoms: O_6  and  C_7 
REMARK    4  A    between atoms: C_11  and  C_12 
REMARK    5  A    between atoms: C_12  and  CA_13 
REMARK    6  A    between atoms: CA_13  and  C_15 
REMARK    7  A    between atoms: CA_13  and  N_14 
REMARK    8  A    between atoms: C_15  and  O_16 
ROOT
HETATM    1  C   LIG     1      25.064  22.944  20.725  1.00  0.00     0.109 A 
HETATM    2  C   LIG     1      24.848  22.340  21.978  1.00  0.00     0.042 A 
HETATM    3  I   LIG     1      23.180  21.087  22.334  1.00  0.00    -0.042 I 
HETATM    4  C   LIG     1      25.771  22.531  23.011  1.00  0.00     0.028 A 
HETATM    5  C   LIG     1      26.912  23.326  22.814  1.00  0.00    -0.053 A 
HETATM    6  C   LIG     1      27.141  23.888  21.548  1.00  0.00     0.028 A 
HETATM    7  C   LIG     1      26.223  23.701  20.510  1.00  0.00     0.042 A 
HETATM    8  I   LIG     1      26.594  24.600  18.634  1.00  0.00    -0.042 I 
ENDROOT
BRANCH   1   9
HETATM    9  O   LIG     1      24.144  22.783  19.683  1.00  0.00    -0.308 OA
BRANCH   9  10
HETATM   10  C   LIG     1      24.071  21.642  18.870  1.00  0.00     0.077 A 
HETATM   11  C   LIG     1      22.811  21.187  18.470  1.00  0.00     0.040 A 
HETATM   12  C   LIG     1      22.691  20.055  17.659  1.00  0.00     0.040 A 
HETATM   13  C   LIG     1      23.830  19.360  17.240  1.00  0.00     0.082 A 
HETATM   14  C   LIG     1      25.105  19.806  17.645  1.00  0.00     0.042 A 
HETATM   15  C   LIG     1      25.218  20.939  18.458  1.00  0.00     0.058 A 
HETATM   16  I   LIG     1      26.891  18.822  17.070  1.00  0.00    -0.042 I 
BRANCH  13  17
HETATM   17  O   LIG     1      23.664  18.237  16.429  1.00  0.00    -0.359 OA
HETATM   18  H   LIG     1      23.923  17.304  16.722  1.00  0.00     0.217 HD
ENDBRANCH  13  17
ENDBRANCH   9  10
ENDBRANCH   1   9
BRANCH   5  19
HETATM   19  C   LIG     1      27.906  23.538  23.935  1.00  0.00     0.085 C 
BRANCH  19  20
HETATM   20  CA  LIG     1      27.402  23.110  25.342  1.00  0.00     0.318 C 
BRANCH  20  21
HETATM   21  C   LIG     1      26.781  24.224  26.152  1.00  0.00     0.174 C 
HETATM   22  OXT LIG     1      27.492  25.075  26.749  1.00  0.00    -0.648 OA
BRANCH  21  23
HETATM   23  O   LIG     1      25.395  24.339  26.224  1.00  0.00    -0.775 OA
HETATM   24  H   LIG     1      24.955  25.006  26.848  1.00  0.00     0.167 HD
ENDBRANCH  21  23
ENDBRANCH  20  21
BRANCH  20  25
HETATM   25  N   LIG     1      28.444  22.447  26.129  1.00  0.00     0.093 N 
HETATM   26  H1  LIG     1      28.379  22.744  27.129  1.00  0.00     0.314 HD
HETATM   27  H2  LIG     1      29.383  22.723  25.761  1.00  0.00     0.314 HD
ENDBRANCH  20  25
ENDBRANCH  19  20
ENDBRANCH   5  19
TORSDOF 8
ENDMDL
MODEL 12
REMARK VINA RESULT:      -4.3     11.317     16.702
REMARK  8 active torsions:
REMARK  status: ('A' for Active; 'I' for Inactive)
REMARK    1  A    between atoms: O_1  and  C_2 
REMARK    2  A    between atoms: C_5  and  O_6 
REMARK    3  A    between atoms: O_6  and  C_7 
REMARK    4  A    between atoms: C_11  and  C_12 
REMARK    5  A    between atoms: C_12  and  CA_13 
REMARK    6  A    between atoms: CA_13  and  C_15 
REMARK    7  A    between atoms: CA_13  and  N_14 
REMARK    8  A    between atoms: C_15  and  O_16 
ROOT
HETATM    1  C   LIG     1      25.532  21.231  20.654  1.00  0.00     0.109 A 
HETATM    2  C   LIG     1      24.880  19.984  20.674  1.00  0.00     0.042 A 
HETATM    3  I   LIG     1      25.311  18.530  22.152  1.00  0.00    -0.042 I 
HETATM    4  C   LIG     1      23.893  19.698  19.726  1.00  0.00     0.028 A 
HETATM    5  C   LIG     1      23.547  20.642  18.746  1.00  0.00    -0.053 A 
HETATM    6  C   LIG     1      24.172  21.900  18.760  1.00  0.00     0.028 A 
HETATM    7  C   LIG     1      25.159  22.193  19.706  1.00  0.00     0.042 A 
HETATM    8  I   LIG     1      26.095  24.086  19.661  1.00  0.00    -0.042 I 
ENDROOT
BRANCH   1   9
HETATM    9  O   LIG     1      26.536  21.531  21.580  1.00  0.00    -0.308 OA
BRANCH   9  10
HETATM   10  C   LIG     1      26.320  22.245  22.768  1.00  0.00     0.077 A 
HETATM   11  C   LIG     1      25.053  22.194  23.357  1.00  0.00     0.040 A 
HETATM   12  C   LIG     1      24.794  22.890  24.541  1.00  0.00     0.040 A 
HETATM   13  C   LIG     1      25.796  23.651  25.150  1.00  0.00     0.082 A 
HETATM   14  C   LIG     1      27.075  23.716  24.560  1.00  0.00     0.042 A 
HETATM   15  C   LIG     1      27.329  23.018  23.373  1.00  0.00     0.058 A 
HETATM   16  I   LIG     1      28.661  24.843  25.398  1.00  0.00    -0.042 I 
BRANCH  13  17
HETATM   17  O   LIG     1      25.493  24.327  26.332  1.00  0.00    -0.359 OA
HETATM   18  H   LIG     1      24.889  23.943  27.046  1.00  0.00     0.217 HD
ENDBRANCH  13  17
ENDBRANCH   9  10
ENDBRANCH   1   9
BRANCH   5  19
HETATM   19  C   LIG     1      22.484  20.329  17.714  1.00  0.00     0.085 C 
BRANCH  19  20
HETATM   20  CA  LIG     1      22.445  18.846  17.252  1.00  0.00     0.318 C 
BRANCH  20  21
HETATM   21  C   LIG     1      22.566  18.651  15.758  1.00  0.00     0.174 C 
HETATM   22  OXT LIG     1      23.684  18.462  15.211  1.00  0.00    -0.648 OA
BRANCH  21  23
HETATM   23  O   LIG     1      21.423  18.650  14.964  1.00  0.00    -0.775 OA
HETATM   24  H   LIG     1      21.303  17.977  14.216  1.00  0.00     0.167 HD
ENDBRANCH  21  23
ENDBRANCH  20  21
BRANCH  20  25
HETATM   25  N   LIG     1      21.262  18.139  17.748  1.00  0.00     0.093 N 
HETATM   26  H1  LIG     1      20.526  18.827  18.028  1.00  0.00     0.314 HD
HETATM   27  H2  LIG     1      21.524  17.574  18.588  1.00  0.00     0.314 HD
ENDBRANCH  20  25
ENDBRANCH  19  20
ENDBRANCH   5  19
TORSDOF 8
ENDMDL
MODEL 13
REMARK VINA RESULT:      -4.1     11.586     13.850
REMARK  8 active torsions:
REMARK  status: ('A' for Active; 'I' for Inactive)
REMARK    1  A    between atoms: O_1  and  C_2 
REMARK    2  A    between atoms: C_5  and  O_6 
REMARK    3  A    between atoms: O_6  and  C_7 
REMARK    4  A    between atoms: C_11  and  C_12 
REMARK    5  A    between atoms: C_12  and  CA_13 
REMARK    6  A    between atoms: CA_13  and  C_15 
REMARK    7  A    between atoms: CA_13  and  N_14 
REMARK    8  A    between atoms: C_15  and  O_16 
ROOT
HETATM    1  C   LIG     1      23.672  20.675  25.369  1.00  0.00     0.109 A 
HETATM    2  C   LIG     1      24.459  21.839  25.304  1.00  0.00     0.042 A 
HETATM    3  I   LIG     1      25.500  22.572  26.995  1.00  0.00    -0.042 I 
HETATM    4  C   LIG     1      24.598  22.519  24.089  1.00  0.00     0.028 A 
HETATM    5  C   LIG     1      23.954  22.054  22.931  1.00  0.00    -0.053 A 
HETATM    6  C   LIG     1      23.207  20.866  22.996  1.00  0.00     0.028 A 
HETATM    7  C   LIG     1      23.064  20.181  24.207  1.00  0.00     0.042 A 
HETATM    8  I   LIG     1      21.898  18.421  24.260  1.00  0.00    -0.042 I 
ENDROOT
BRANCH   1   9
HETATM    9  O   LIG     1      23.502  19.990  26.578  1.00  0.00    -0.308 OA
BRANCH   9  10
HETATM   10  C   LIG     1      22.399  20.158  27.427  1.00  0.00     0.077 A 
HETATM   11  C   LIG     1      21.618  21.310  27.287  1.00  0.00     0.040 A 
HETATM   12  C   LIG     1      20.509  21.518  28.112  1.00  0.00     0.040 A 
HETATM   13  C   LIG     1      20.168  20.580  29.092  1.00  0.00     0.082 A 
HETATM   14  C   LIG     1      20.954  19.420  29.246  1.00  0.00     0.042 A 
HETATM   15  C   LIG     1      22.064  19.217  28.418  1.00  0.00     0.058 A 
HETATM   16  I   LIG     1      20.526  17.940  30.701  1.00  0.00    -0.042 I 
BRANCH  13  17
HETATM   17  O   LIG     1      19.052  20.828  29.890  1.00  0.00    -0.359 OA
HETATM   18  H   LIG     1      19.046  20.674  30.890  1.00  0.00     0.217 HD
ENDBRANCH  13  17
ENDBRANCH   9  10
ENDBRANCH   1   9
BRANCH   5  19
HETATM   19  C   LIG     1      24.099  22.794  21.619  1.00  0.00     0.085 C 
BRANCH  19  20
HETATM   20  CA  LIG     1      25.553  22.874  21.075  1.00  0.00     0.318 C 
BRANCH  20  21
HETATM   21  C   LIG     1      25.712  23.718  19.831  1.00  0.00     0.174 C 
HETATM   22  OXT LIG     1      25.282  23.327  18.715  1.00  0.00    -0.648 OA
BRANCH  21  23
HETATM   23  O   LIG     1      26.320  24.968  19.915  1.00  0.00    -0.775 OA
HETATM   24  H   LIG     1      27.329  25.062  19.921  1.00  0.00     0.167 HD
ENDBRANCH  21  23
ENDBRANCH  20  21
BRANCH  20  25
HETATM   25  N   LIG     1      26.139  21.551  20.853  1.00  0.00     0.093 N 
HETATM   26  H1  LIG     1      26.919  21.388  21.529  1.00  0.00     0.314 HD
HETATM   27  H2  LIG     1      26.525  21.502  19.882  1.00  0.00     0.314 HD
ENDBRANCH  20  25
ENDBRANCH  19  20
ENDBRANCH   5  19
TORSDOF 8
ENDMDL
MODEL 14
REMARK VINA RESULT:      -4.1      8.783     14.159
REMARK  8 active torsions:
REMARK  status: ('A' for Active; 'I' for Inactive)
REMARK    1  A    between atoms: O_1  and  C_2 
REMARK    2  A    between atoms: C_5  and  O_6 
REMARK    3  A    between atoms: O_6  and  C_7 
REMARK    4  A    between atoms: C_11  and  C_12 
REMARK    5  A    between atoms: C_12  and  CA_13 
REMARK    6  A    between atoms: CA_13  and  C_15 
REMARK    7  A    between atoms: CA_13  and  N_14 
REMARK    8  A    between atoms: C_15  and  O_16 
ROOT
HETATM    1  C   LIG     1      25.427  21.827  23.396  1.00  0.00     0.109 A 
HETATM    2  C   LIG     1      25.777  22.525  22.224  1.00  0.00     0.042 A 
HETATM    3  I   LIG     1      27.738  23.258  21.912  1.00  0.00    -0.042 I 
HETATM    4  C   LIG     1      24.826  22.713  21.216  1.00  0.00     0.028 A 
HETATM    5  C   LIG     1      23.521  22.217  21.361  1.00  0.00    -0.053 A 
HETATM    6  C   LIG     1      23.194  21.483  22.513  1.00  0.00     0.028 A 
HETATM    7  C   LIG     1      24.139  21.291  23.526  1.00  0.00     0.042 A 
HETATM    8  I   LIG     1      23.586  20.213  25.257  1.00  0.00    -0.042 I 
ENDROOT
BRANCH   1   9
HETATM    9  O   LIG     1      26.356  21.644  24.426  1.00  0.00    -0.308 OA
BRANCH   9  10
HETATM   10  C   LIG     1      26.437  22.461  25.564  1.00  0.00     0.077 A 
HETATM   11  C   LIG     1      26.070  23.805  25.448  1.00  0.00     0.040 A 
HETATM   12  C   LIG     1      26.135  24.654  26.556  1.00  0.00     0.040 A 
HETATM   13  C   LIG     1      26.570  24.173  27.795  1.00  0.00     0.082 A 
HETATM   14  C   LIG     1      26.950  22.820  27.919  1.00  0.00     0.042 A 
HETATM   15  C   LIG     1      26.885  21.975  26.806  1.00  0.00     0.058 A 
HETATM   16  I   LIG     1      27.629  21.992  29.748  1.00  0.00    -0.042 I 
BRANCH  13  17
HETATM   17  O   LIG     1      26.617  25.055  28.874  1.00  0.00    -0.359 OA
HETATM   18  H   LIG     1      26.138  25.946  28.876  1.00  0.00     0.217 HD
ENDBRANCH  13  17
ENDBRANCH   9  10
ENDBRANCH   1   9
BRANCH   5  19
HETATM   19  C   LIG     1      22.490  22.427  20.273  1.00  0.00     0.085 C 
BRANCH  19  20
HETATM   20  CA  LIG     1      22.762  21.640  18.960  1.00  0.00     0.318 C 
BRANCH  20  21
HETATM   21  C   LIG     1      23.376  20.274  19.163  1.00  0.00     0.174 C 
HETATM   22  OXT LIG     1      22.700  19.313  19.614  1.00  0.00    -0.648 OA
BRANCH  21  23
HETATM   23  O   LIG     1      24.707  20.055  18.820  1.00  0.00    -0.775 OA
HETATM   24  H   LIG     1      25.162  20.606  18.102  1.00  0.00     0.167 HD
ENDBRANCH  21  23
ENDBRANCH  20  21
BRANCH  20  25
HETATM   25  N   LIG     1      23.567  22.407  18.007  1.00  0.00     0.093 N 
HETATM   26  H1  LIG     1      24.508  21.965  17.897  1.00  0.00     0.314 HD
HETATM   27  H2  LIG     1      23.698  23.380  18.370  1.00  0.00     0.314 HD
ENDBRANCH  20  25
ENDBRANCH  19  20
ENDBRANCH   5  19
TORSDOF 8
ENDMDL
MODEL 15
REMARK VINA RESULT:      -4.0     12.858     17.500
REMARK  8 active torsions:
REMARK  status: ('A' for Active; 'I' for Inactive)
REMARK    1  A    between atoms: O_1  and  C_2 
REMARK    2  A    between atoms: C_5  and  O_6 
REMARK    3  A    between atoms: O_6  and  C_7 
REMARK    4  A    between atoms: C_11  and  C_12 
REMARK    5  A    between atoms: C_12  and  CA_13 
REMARK    6  A    between atoms: CA_13  and  C_15 
REMARK    7  A    between atoms: CA_13  and  N_14 
REMARK    8  A    between atoms: C_15  and  O_16 
ROOT
HETATM    1  C   LIG     1      25.555  20.894  20.157  1.00  0.00     0.109 A 
HETATM    2  C   LIG     1      24.221  21.121  20.544  1.00  0.00     0.042 A 
HETATM    3  I   LIG     1      23.738  21.899  22.453  1.00  0.00    -0.042 I 
HETATM    4  C   LIG     1      23.181  20.870  19.644  1.00  0.00     0.028 A 
HETATM    5  C   LIG     1      23.452  20.385  18.355  1.00  0.00    -0.053 A 
HETATM    6  C   LIG     1      24.788  20.203  17.961  1.00  0.00     0.028 A 
HETATM    7  C   LIG     1      25.833  20.453  18.856  1.00  0.00     0.042 A 
HETATM    8  I   LIG     1      27.824  20.127  18.228  1.00  0.00    -0.042 I 
ENDROOT
BRANCH   1   9
HETATM    9  O   LIG     1      26.610  21.120  21.047  1.00  0.00    -0.308 OA
BRANCH   9  10
HETATM   10  C   LIG     1      27.144  22.387  21.326  1.00  0.00     0.077 A 
HETATM   11  C   LIG     1      27.621  22.641  22.616  1.00  0.00     0.040 A 
HETATM   12  C   LIG     1      28.161  23.888  22.938  1.00  0.00     0.040 A 
HETATM   13  C   LIG     1      28.228  24.902  21.976  1.00  0.00     0.082 A 
HETATM   14  C   LIG     1      27.742  24.658  20.675  1.00  0.00     0.042 A 
HETATM   15  C   LIG     1      27.201  23.407  20.359  1.00  0.00     0.058 A 
HETATM   16  I   LIG     1      27.792  26.125  19.147  1.00  0.00    -0.042 I 
BRANCH  13  17
HETATM   17  O   LIG     1      28.778  26.131  22.341  1.00  0.00    -0.359 OA
HETATM   18  H   LIG     1      29.773  26.282  22.435  1.00  0.00     0.217 HD
ENDBRANCH  13  17
ENDBRANCH   9  10
ENDBRANCH   1   9
BRANCH   5  19
HETATM   19  C   LIG     1      22.326  20.105  17.383  1.00  0.00     0.085 C 
BRANCH  19  20
HETATM   20  CA  LIG     1      22.223  18.626  16.917  1.00  0.00     0.318 C 
BRANCH  20  21
HETATM   21  C   LIG     1      22.208  18.440  15.417  1.00  0.00     0.174 C 
HETATM   22  OXT LIG     1      23.276  18.340  14.759  1.00  0.00    -0.648 OA
BRANCH  21  23
HETATM   23  O   LIG     1      20.993  18.349  14.743  1.00  0.00    -0.775 OA
HETATM   24  H   LIG     1      20.600  17.450  14.489  1.00  0.00     0.167 HD
ENDBRANCH  21  23
ENDBRANCH  20  21
BRANCH  20  25
HETATM   25  N   LIG     1      21.078  17.933  17.512  1.00  0.00     0.093 N 
HETATM   26  H1  LIG     1      20.838  18.366  18.433  1.00  0.00     0.314 HD
HETATM   27  H2  LIG     1      21.328  16.929  17.673  1.00  0.00     0.314 HD
ENDBRANCH  20  25
ENDBRANCH  19  20
ENDBRANCH   5  19
TORSDOF 8
ENDMDL
MODEL 16
REMARK VINA RESULT:      -4.0      7.676     12.924
REMARK  8 active torsions:
REMARK  status: ('A' for Active; 'I' for Inactive)
REMARK    1  A    between atoms: O_1  and  C_2 
REMARK    2  A    between atoms: C_5  and  O_6 
REMARK    3  A    between atoms: O_6  and  C_7 
REMARK    4  A    between atoms: C_11  and  C_12 
REMARK    5  A    between atoms: C_12  and  CA_13 
REMARK    6  A    between atoms: CA_13  and  C_15 
REMARK    7  A    between atoms: CA_13  and  N_14 
REMARK    8  A    between atoms: C_15  and  O_16 
ROOT
HETATM    1  C   LIG     1      26.408  22.407  24.852  1.00  0.00     0.109 A 
HETATM    2  C   LIG     1      25.103  21.890  24.957  1.00  0.00     0.042 A 
HETATM    3  I   LIG     1      24.378  21.063  26.766  1.00  0.00    -0.042 I 
HETATM    4  C   LIG     1      24.238  21.953  23.859  1.00  0.00     0.028 A 
HETATM    5  C   LIG     1      24.661  22.523  22.647  1.00  0.00    -0.053 A 
HETATM    6  C   LIG     1      25.950  23.076  22.566  1.00  0.00     0.028 A 
HETATM    7  C   LIG     1      26.819  23.017  23.660  1.00  0.00     0.042 A 
HETATM    8  I   LIG     1      28.761  23.829  23.474  1.00  0.00    -0.042 I 
ENDROOT
BRANCH   1   9
HETATM    9  O   LIG     1      27.296  22.337  25.931  1.00  0.00    -0.308 OA
BRANCH   9  10
HETATM   10  C   LIG     1      27.235  23.177  27.054  1.00  0.00     0.077 A 
HETATM   11  C   LIG     1      26.618  24.424  26.921  1.00  0.00     0.040 A 
HETATM   12  C   LIG     1      26.536  25.292  28.013  1.00  0.00     0.040 A 
HETATM   13  C   LIG     1      27.072  24.927  29.252  1.00  0.00     0.082 A 
HETATM   14  C   LIG     1      27.704  23.675  29.393  1.00  0.00     0.042 A 
HETATM   15  C   LIG     1      27.785  22.810  28.296  1.00  0.00     0.058 A 
HETATM   16  I   LIG     1      28.553  23.028  31.223  1.00  0.00    -0.042 I 
BRANCH  13  17
HETATM   17  O   LIG     1      26.965  25.824  30.314  1.00  0.00    -0.359 OA
HETATM   18  H   LIG     1      27.764  26.153  30.839  1.00  0.00     0.217 HD
ENDBRANCH  13  17
ENDBRANCH   9  10
ENDBRANCH   1   9
BRANCH   5  19
HETATM   19  C   LIG     1      23.728  22.584  21.457  1.00  0.00     0.085 C 
BRANCH  19  20
HETATM   20  CA  LIG     1      24.051  21.568  20.326  1.00  0.00     0.318 C 
BRANCH  20  21
HETATM   21  C   LIG     1      23.938  22.130  18.927  1.00  0.00     0.174 C 
HETATM   22  OXT LIG     1      24.929  22.646  18.346  1.00  0.00    -0.648 OA
BRANCH  21  23
HETATM   23  O   LIG     1      22.726  22.056  18.246  1.00  0.00    -0.775 OA
HETATM   24  H   LIG     1      22.443  22.780  17.598  1.00  0.00     0.167 HD
ENDBRANCH  21  23
ENDBRANCH  20  21
BRANCH  20  25
HETATM   25  N   LIG     1      23.255  20.344  20.432  1.00  0.00     0.093 N 
HETATM   26  H1  LIG     1      23.341  19.946  21.395  1.00  0.00     0.314 HD
HETATM   27  H2  LIG     1      23.614  19.638  19.748  1.00  0.00     0.314 HD
ENDBRANCH  20  25
ENDBRANCH  19  20
ENDBRANCH   5  19
TORSDOF 8
ENDMDL
MODEL 17
REMARK VINA RESULT:      -3.9      7.324     12.695
REMARK  8 active torsions:
REMARK  status: ('A' for Active; 'I' for Inactive)
REMARK    1  A    between atoms: O_1  and  C_2 
REMARK    2  A    between atoms: C_5  and  O_6 
REMARK    3  A    between atoms: O_6  and  C_7 
REMARK    4  A    between atoms: C_11  and  C_12 
REMARK    5  A    between atoms: C_12  and  CA_13 
REMARK    6  A    between atoms: CA_13  and  C_15 
REMARK    7  A    between atoms: CA_13  and  N_14 
REMARK    8  A    between atoms: C_15  and  O_16 
ROOT
HETATM    1  C   LIG     1      26.259  22.267  25.444  1.00  0.00     0.109 A 
HETATM    2  C   LIG     1      26.846  22.780  24.272  1.00  0.00     0.042 A 
HETATM    3  I   LIG     1      28.897  23.296  24.191  1.00  0.00    -0.042 I 
HETATM    4  C   LIG     1      26.077  22.922  23.112  1.00  0.00     0.028 A 
HETATM    5  C   LIG     1      24.720  22.562  23.105  1.00  0.00    -0.053 A 
HETATM    6  C   LIG     1      24.154  22.009  24.267  1.00  0.00     0.028 A 
HETATM    7  C   LIG     1      24.917  21.864  25.429  1.00  0.00     0.042 A 
HETATM    8  I   LIG     1      24.009  21.064  27.161  1.00  0.00    -0.042 I 
ENDROOT
BRANCH   1   9
HETATM    9  O   LIG     1      27.004  22.135  26.621  1.00  0.00    -0.308 OA
BRANCH   9  10
HETATM   10  C   LIG     1      27.065  23.113  27.625  1.00  0.00     0.077 A 
HETATM   11  C   LIG     1      26.523  24.375  27.362  1.00  0.00     0.040 A 
HETATM   12  C   LIG     1      26.561  25.378  28.334  1.00  0.00     0.040 A 
HETATM   13  C   LIG     1      27.144  25.135  29.582  1.00  0.00     0.082 A 
HETATM   14  C   LIG     1      27.701  23.869  29.854  1.00  0.00     0.042 A 
HETATM   15  C   LIG     1      27.661  22.868  28.876  1.00  0.00     0.058 A 
HETATM   16  I   LIG     1      28.611  23.399  31.708  1.00  0.00    -0.042 I 
BRANCH  13  17
HETATM   17  O   LIG     1      27.157  26.165  30.522  1.00  0.00    -0.359 OA
HETATM   18  H   LIG     1      27.509  26.046  31.463  1.00  0.00     0.217 HD
ENDBRANCH  13  17
ENDBRANCH   9  10
ENDBRANCH   1   9
BRANCH   5  19
HETATM   19  C   LIG     1      23.885  22.723  21.853  1.00  0.00     0.085 C 
BRANCH  19  20
HETATM   20  CA  LIG     1      24.305  21.803  20.671  1.00  0.00     0.318 C 
BRANCH  20  21
HETATM   21  C   LIG     1      24.685  22.540  19.407  1.00  0.00     0.174 C 
HETATM   22  OXT LIG     1      24.134  22.279  18.306  1.00  0.00    -0.648 OA
BRANCH  21  23
HETATM   23  O   LIG     1      25.642  23.550  19.456  1.00  0.00    -0.775 OA
HETATM   24  H   LIG     1      26.136  23.765  20.314  1.00  0.00     0.167 HD
ENDBRANCH  21  23
ENDBRANCH  20  21
BRANCH  20  25
HETATM   25  N   LIG     1      23.292  20.790  20.367  1.00  0.00     0.093 N 
HETATM   26  H1  LIG     1      22.336  21.204  20.455  1.00  0.00     0.314 HD
HETATM   27  H2  LIG     1      23.377  20.002  21.050  1.00  0.00     0.314 HD
ENDBRANCH  20  25
ENDBRANCH  19  20
ENDBRANCH   5  19
TORSDOF 8
ENDMDL
MODEL 18
REMARK VINA RESULT:      -3.8     11.031     13.704
REMARK  8 active torsions:
REMARK  status: ('A' for Active; 'I' for Inactive)
REMARK    1  A    between atoms: O_1  and  C_2 
REMARK    2  A    between atoms: C_5  and  O_6 
REMARK    3  A    between atoms: O_6  and  C_7 
REMARK    4  A    between atoms: C_11  and  C_12 
REMARK    5  A    between atoms: C_12  and  CA_13 
REMARK    6  A    between atoms: CA_13  and  C_15 
REMARK    7  A    between atoms: CA_13  and  N_14 
REMARK    8  A    between atoms: C_15  and  O_16 
ROOT
HETATM    1  C   LIG     1      25.759  21.851  21.046  1.00  0.00     0.109 A 
HETATM    2  C   LIG     1      24.356  21.741  21.075  1.00  0.00     0.042 A 
HETATM    3  I   LIG     1      23.198  21.838  19.305  1.00  0.00    -0.042 I 
HETATM    4  C   LIG     1      23.699  21.524  22.290  1.00  0.00     0.028 A 
HETATM    5  C   LIG     1      24.425  21.418  23.487  1.00  0.00    -0.053 A 
HETATM    6  C   LIG     1      25.828  21.485  23.443  1.00  0.00     0.028 A 
HETATM    7  C   LIG     1      26.491  21.702  22.231  1.00  0.00     0.042 A 
HETATM    8  I   LIG     1      28.600  21.832  22.223  1.00  0.00    -0.042 I 
ENDROOT
BRANCH   1   9
HETATM    9  O   LIG     1      26.435  22.088  19.844  1.00  0.00    -0.308 OA
BRANCH   9  10
HETATM   10  C   LIG     1      26.888  23.351  19.434  1.00  0.00     0.077 A 
HETATM   11  C   LIG     1      26.533  24.467  20.198  1.00  0.00     0.040 A 
HETATM   12  C   LIG     1      26.962  25.744  19.827  1.00  0.00     0.040 A 
HETATM   13  C   LIG     1      27.748  25.925  18.684  1.00  0.00     0.082 A 
HETATM   14  C   LIG     1      28.104  24.806  17.903  1.00  0.00     0.042 A 
HETATM   15  C   LIG     1      27.670  23.529  18.279  1.00  0.00     0.058 A 
HETATM   16  I   LIG     1      29.287  24.970  16.152  1.00  0.00    -0.042 I 
BRANCH  13  17
HETATM   17  O   LIG     1      28.156  27.217  18.353  1.00  0.00    -0.359 OA
HETATM   18  H   LIG     1      28.930  27.406  17.731  1.00  0.00     0.217 HD
ENDBRANCH  13  17
ENDBRANCH   9  10
ENDBRANCH   1   9
BRANCH   5  19
HETATM   19  C   LIG     1      23.713  21.191  24.803  1.00  0.00     0.085 C 
BRANCH  19  20
HETATM   20  CA  LIG     1      24.493  21.681  26.056  1.00  0.00     0.318 C 
BRANCH  20  21
HETATM   21  C   LIG     1      24.045  21.055  27.358  1.00  0.00     0.174 C 
HETATM   22  OXT LIG     1      22.906  20.533  27.476  1.00  0.00    -0.648 OA
BRANCH  21  23
HETATM   23  O   LIG     1      24.913  21.025  28.446  1.00  0.00    -0.775 OA
HETATM   24  H   LIG     1      25.744  20.445  28.439  1.00  0.00     0.167 HD
ENDBRANCH  21  23
ENDBRANCH  20  21
BRANCH  20  25
HETATM   25  N   LIG     1      24.486  23.140  26.181  1.00  0.00     0.093 N 
HETATM   26  H1  LIG     1      24.167  23.573  25.284  1.00  0.00     0.314 HD
HETATM   27  H2  LIG     1      25.457  23.474  26.383  1.00  0.00     0.314 HD
ENDBRANCH  20  25
ENDBRANCH  19  20
ENDBRANCH   5  19
TORSDOF 8
ENDMDL
MODEL 19
REMARK VINA RESULT:      -3.8      5.978      9.160
REMARK  8 active torsions:
REMARK  status: ('A' for Active; 'I' for Inactive)
REMARK    1  A    between atoms: O_1  and  C_2 
REMARK    2  A    between atoms: C_5  and  O_6 
REMARK    3  A    between atoms: O_6  and  C_7 
REMARK    4  A    between atoms: C_11  and  C_12 
REMARK    5  A    between atoms: C_12  and  CA_13 
REMARK    6  A    between atoms: CA_13  and  C_15 
REMARK    7  A    between atoms: CA_13  and  N_14 
REMARK    8  A    between atoms: C_15  and  O_16 
ROOT
HETATM    1  C   LIG     1      26.742  22.727  26.004  1.00  0.00     0.109 A 
HETATM    2  C   LIG     1      25.879  22.804  27.113  1.00  0.00     0.042 A 
HETATM    3  I   LIG     1      24.449  21.296  27.515  1.00  0.00    -0.042 I 
HETATM    4  C   LIG     1      25.982  23.879  28.002  1.00  0.00     0.028 A 
HETATM    5  C   LIG     1      26.937  24.888  27.798  1.00  0.00    -0.053 A 
HETATM    6  C   LIG     1      27.823  24.779  26.713  1.00  0.00     0.028 A 
HETATM    7  C   LIG     1      27.726  23.708  25.821  1.00  0.00     0.042 A 
HETATM    8  I   LIG     1      29.057  23.610  24.183  1.00  0.00    -0.042 I 
ENDROOT
BRANCH   1   9
HETATM    9  O   LIG     1      26.643  21.672  25.091  1.00  0.00    -0.308 OA
BRANCH   9  10
HETATM   10  C   LIG     1      25.677  21.600  24.076  1.00  0.00     0.077 A 
HETATM   11  C   LIG     1      25.214  22.791  23.509  1.00  0.00     0.040 A 
HETATM   12  C   LIG     1      24.253  22.766  22.495  1.00  0.00     0.040 A 
HETATM   13  C   LIG     1      23.736  21.549  22.037  1.00  0.00     0.082 A 
HETATM   14  C   LIG     1      24.190  20.343  22.609  1.00  0.00     0.042 A 
HETATM   15  C   LIG     1      25.153  20.374  23.625  1.00  0.00     0.058 A 
HETATM   16  I   LIG     1      23.470  18.448  21.991  1.00  0.00    -0.042 I 
BRANCH  13  17
HETATM   17  O   LIG     1      22.780  21.572  21.022  1.00  0.00    -0.359 OA
HETATM   18  H   LIG     1      21.790  21.461  21.197  1.00  0.00     0.217 HD
ENDBRANCH  13  17
ENDBRANCH   9  10
ENDBRANCH   1   9
BRANCH   5  19
HETATM   19  C   LIG     1      27.043  26.054  28.756  1.00  0.00     0.085 C 
BRANCH  19  20
HETATM   20  CA  LIG     1      27.187  25.655  30.252  1.00  0.00     0.318 C 
BRANCH  20  21
HETATM   21  C   LIG     1      27.114  26.814  31.220  1.00  0.00     0.174 C 
HETATM   22  OXT LIG     1      26.173  26.916  32.050  1.00  0.00    -0.648 OA
BRANCH  21  23
HETATM   23  O   LIG     1      28.118  27.778  31.223  1.00  0.00    -0.775 OA
HETATM   24  H   LIG     1      28.841  27.785  30.513  1.00  0.00     0.167 HD
ENDBRANCH  21  23
ENDBRANCH  20  21
BRANCH  20  25
HETATM   25  N   LIG     1      28.399  24.874  30.506  1.00  0.00     0.093 N 
HETATM   26  H1  LIG     1      28.289  23.908  30.120  1.00  0.00     0.314 HD
HETATM   27  H2  LIG     1      28.554  24.803  31.538  1.00  0.00     0.314 HD
ENDBRANCH  20  25
ENDBRANCH  19  20
ENDBRANCH   5  19
TORSDOF 8
ENDMDL
MODEL 20
REMARK VINA RESULT:      -3.7     11.706     14.251
REMARK  8 active torsions:
REMARK  status: ('A' for Active; 'I' for Inactive)
REMARK    1  A    between atoms: O_1  and  C_2 
REMARK    2  A    between atoms: C_5  and  O_6 
REMARK    3  A    between atoms: O_6  and  C_7 
REMARK    4  A    between atoms: C_11  and  C_12 
REMARK    5  A    between atoms: C_12  and  CA_13 
REMARK    6  A    between atoms: CA_13  and  C_15 
REMARK    7  A    between atoms: CA_13  and  N_14 
REMARK    8  A    between atoms: C_15  and  O_16 
ROOT
HETATM    1  C   LIG     1      24.205  20.354  24.860  1.00  0.00     0.109 A 
HETATM    2  C   LIG     1      24.824  21.618  24.890  1.00  0.00     0.042 A 
HETATM    3  I   LIG     1      26.100  22.192  26.478  1.00  0.00    -0.042 I 
HETATM    4  C   LIG     1      24.632  22.513  23.832  1.00  0.00     0.028 A 
HETATM    5  C   LIG     1      23.822  22.166  22.739  1.00  0.00    -0.053 A 
HETATM    6  C   LIG     1      23.244  20.886  22.697  1.00  0.00     0.028 A 
HETATM    7  C   LIG     1      23.432  19.986  23.751  1.00  0.00     0.042 A 
HETATM    8  I   LIG     1      22.510  18.087  23.657  1.00  0.00    -0.042 I 
ENDROOT
BRANCH   1   9
HETATM    9  O   LIG     1      24.367  19.451  25.916  1.00  0.00    -0.308 OA
BRANCH   9  10
HETATM   10  C   LIG     1      23.582  19.454  27.079  1.00  0.00     0.077 A 
HETATM   11  C   LIG     1      24.019  18.714  28.182  1.00  0.00     0.040 A 
HETATM   12  C   LIG     1      23.269  18.689  29.360  1.00  0.00     0.040 A 
HETATM   13  C   LIG     1      22.068  19.400  29.452  1.00  0.00     0.082 A 
HETATM   14  C   LIG     1      21.614  20.142  28.342  1.00  0.00     0.042 A 
HETATM   15  C   LIG     1      22.369  20.163  27.164  1.00  0.00     0.058 A 
HETATM   16  I   LIG     1      19.808  21.249  28.374  1.00  0.00    -0.042 I 
BRANCH  13  17
HETATM   17  O   LIG     1      21.353  19.349  30.648  1.00  0.00    -0.359 OA
HETATM   18  H   LIG     1      20.659  18.639  30.844  1.00  0.00     0.217 HD
ENDBRANCH  13  17
ENDBRANCH   9  10
ENDBRANCH   1   9
BRANCH   5  19
HETATM   19  C   LIG     1      23.608  23.137  21.598  1.00  0.00     0.085 C 
BRANCH  19  20
HETATM   20  CA  LIG     1      24.543  22.919  20.376  1.00  0.00     0.318 C 
BRANCH  20  21
HETATM   21  C   LIG     1      23.910  22.167  19.228  1.00  0.00     0.174 C 
HETATM   22  OXT LIG     1      22.757  21.672  19.325  1.00  0.00    -0.648 OA
BRANCH  21  23
HETATM   23  O   LIG     1      24.596  22.038  18.023  1.00  0.00    -0.775 OA
HETATM   24  H   LIG     1      24.186  22.346  17.149  1.00  0.00     0.167 HD
ENDBRANCH  21  23
ENDBRANCH  20  21
BRANCH  20  25
HETATM   25  N   LIG     1      25.807  22.280  20.749  1.00  0.00     0.093 N 
HETATM   26  H1  LIG     1      26.568  22.995  20.799  1.00  0.00     0.314 HD
HETATM   27  H2  LIG     1      26.064  21.573  20.022  1.00  0.00     0.314 HD
ENDBRANCH  20  25
ENDBRANCH  19  20
ENDBRANCH   5  19
TORSDOF 8
ENDMDL
