MODEL 1
REMARK VINA RESULT:      -9.6      0.000      0.000
REMARK  8 active torsions:
REMARK  status: ('A' for Active; 'I' for Inactive)
REMARK    1  A    between atoms: O_1  and  C_2 
REMARK    2  A    between atoms: C_2  and  C_3 
REMARK    3  A    between atoms: C_3  and  N_4 
REMARK    4  A    between atoms: N_9  and  C_10 
REMARK    5  A    between atoms: C_10  and  C_11 
REMARK    6  A    between atoms: C_11  and  C_12 
REMARK    7  A    between atoms: C_12  and  N_13 
REMARK    8  A    between atoms: C_18  and  C_19 
ROOT
HETATM    1  N   LIG     1      16.722  36.472  22.910  1.00  0.00    -0.345 N 
HETATM    2  C   LIG     1      17.401  37.537  22.206  1.00  0.00     0.053 A 
HETATM    3  C   LIG     1      17.779  38.693  22.910  1.00  0.00     0.032 A 
HETATM    4  C   LIG     1      18.580  39.661  22.299  1.00  0.00     0.022 A 
HETATM    5  C   LIG     1      18.980  39.504  20.970  1.00  0.00     0.017 A 
HETATM    6  C   LIG     1      18.581  38.372  20.236  1.00  0.00     0.050 A 
HETATM    7  C   LIG     1      17.806  37.383  20.867  1.00  0.00     0.047 A 
HETATM    8  S   LIG     1      17.138  38.972  24.564  1.00  0.00    -0.086 SA
HETATM    9  C   LIG     1      17.484  37.294  25.102  1.00  0.00     0.032 A 
HETATM   10  C   LIG     1      17.123  36.215  24.272  1.00  0.00     0.052 A 
HETATM   11  C   LIG     1      17.322  34.901  24.732  1.00  0.00     0.031 A 
HETATM   12  C   LIG     1      17.863  34.673  26.002  1.00  0.00     0.002 A 
HETATM   13  C   LIG     1      18.231  35.751  26.811  1.00  0.00     0.002 A 
HETATM   14  C   LIG     1      18.047  37.061  26.361  1.00  0.00     0.021 A 
ENDROOT
BRANCH   1  15
HETATM   15  C   LIG     1      15.666  35.672  22.266  1.00  0.00     0.131 C 
BRANCH  15  16
HETATM   16  C   LIG     1      16.259  34.591  21.351  1.00  0.00     0.040 C 
BRANCH  16  17
HETATM   17  C   LIG     1      15.177  33.915  20.493  1.00  0.00     0.118 C 
BRANCH  17  18
HETATM   18  N   LIG     1      15.674  33.413  19.195  1.00  0.00    -0.409 N 
HETATM   19  C   LIG     1      15.645  34.360  18.064  1.00  0.00     0.147 C 
HETATM   20  C   LIG     1      14.471  34.112  17.100  1.00  0.00     0.291 C 
HETATM   21  N   LIG     1      14.330  32.695  16.711  1.00  0.00     0.093 N 
HETATM   22  C   LIG     1      14.198  31.838  17.903  1.00  0.00     0.291 C 
HETATM   23  C   LIG     1      15.380  32.001  18.872  1.00  0.00     0.147 C 
BRANCH  21  24
HETATM   24  C   LIG     1      15.375  32.221  15.774  1.00  0.00     0.298 C 
BRANCH  24  25
HETATM   25  C   LIG     1      14.873  31.029  14.954  1.00  0.00     0.194 C 
BRANCH  25  26
HETATM   26  O   LIG     1      15.947  30.326  14.388  1.00  0.00    -0.399 OA
HETATM   27  H   LIG     1      16.077  29.513  14.943  1.00  0.00     0.209 HD
ENDBRANCH  25  26
ENDBRANCH  24  25
ENDBRANCH  21  24
ENDBRANCH  17  18
ENDBRANCH  16  17
ENDBRANCH  15  16
ENDBRANCH   1  15
BRANCH   6  28
HETATM   28  C   LIG     1      19.015  38.169  18.805  1.00  0.00     0.417 C 
HETATM   29  F   LIG     1      20.397  38.178  18.742  1.00  0.00    -0.166 F 
HETATM   30  F   LIG     1      18.525  39.164  17.975  1.00  0.00    -0.166 F 
HETATM   31  F   LIG     1      18.549  36.949  18.347  1.00  0.00    -0.166 F 
ENDBRANCH   6  28
TORSDOF 8
ENDMDL
