REMARK  8 active torsions:
REMARK  status: ('A' for Active; 'I' for Inactive)
REMARK    1  A    between atoms: O_1  and  C_2 
REMARK    2  A    between atoms: C_2  and  C_3 
REMARK    3  A    between atoms: C_3  and  N_4 
REMARK    4  A    between atoms: N_9  and  C_10 
REMARK    5  A    between atoms: C_10  and  C_11 
REMARK    6  A    between atoms: C_11  and  C_12 
REMARK    7  A    between atoms: C_12  and  N_13 
REMARK    8  A    between atoms: C_18  and  C_19 
ROOT
HETATM    1  N   LIG     1      -2.134   0.942  -0.907  1.00  0.00    -0.345 N 
HETATM    2  C   LIG     1      -2.367  -0.377  -0.361  1.00  0.00     0.053 A 
HETATM    3  C   LIG     1      -2.820  -0.501   0.964  1.00  0.00     0.032 A 
HETATM    4  C   LIG     1      -3.212  -1.746   1.462  1.00  0.00     0.022 A 
HETATM    5  C   LIG     1      -3.121  -2.884   0.657  1.00  0.00     0.017 A 
HETATM    6  C   LIG     1      -2.634  -2.787  -0.659  1.00  0.00     0.050 A 
HETATM    7  C   LIG     1      -2.276  -1.526  -1.167  1.00  0.00     0.047 A 
HETATM    8  S   LIG     1      -2.791   0.931   2.047  1.00  0.00    -0.086 SA
HETATM    9  C   LIG     1      -3.523   2.016   0.818  1.00  0.00     0.032 A 
HETATM   10  C   LIG     1      -3.031   1.997  -0.501  1.00  0.00     0.052 A 
HETATM   11  C   LIG     1      -3.552   2.905  -1.440  1.00  0.00     0.031 A 
HETATM   12  C   LIG     1      -4.541   3.819  -1.062  1.00  0.00     0.002 A 
HETATM   13  C   LIG     1      -5.033   3.820   0.246  1.00  0.00     0.002 A 
HETATM   14  C   LIG     1      -4.529   2.916   1.185  1.00  0.00     0.021 A 
ENDROOT
BRANCH   1  15
HETATM   15  C   LIG     1      -1.030   1.204  -1.847  1.00  0.00     0.131 C 
BRANCH  15  16
HETATM   16  C   LIG     1       0.325   0.802  -1.247  1.00  0.00     0.040 C 
BRANCH  16  17
HETATM   17  C   LIG     1       0.679   1.657  -0.019  1.00  0.00     0.118 C 
BRANCH  17  18
HETATM   18  N   LIG     1       1.920   1.234   0.663  1.00  0.00    -0.409 N 
HETATM   19  C   LIG     1       3.173   1.357  -0.107  1.00  0.00     0.147 C 
HETATM   20  C   LIG     1       3.666   0.013  -0.674  1.00  0.00     0.291 C 
HETATM   21  N   LIG     1       3.670  -1.072   0.327  1.00  0.00     0.093 N 
HETATM   22  C   LIG     1       2.333  -1.233   0.926  1.00  0.00     0.291 C 
HETATM   23  C   LIG     1       1.819   0.068   1.564  1.00  0.00     0.147 C 
BRANCH  21  24
HETATM   24  C   LIG     1       4.744  -0.952   1.340  1.00  0.00     0.298 C 
BRANCH  24  25
HETATM   25  C   LIG     1       6.069  -1.496   0.798  1.00  0.00     0.194 C 
BRANCH  25  26
HETATM   26  O   LIG     1       5.913  -2.807   0.325  1.00  0.00    -0.399 OA
HETATM   27  H   LIG     1       5.830  -3.389   1.125  1.00  0.00     0.209 HD
ENDBRANCH  25  26
ENDBRANCH  24  25
ENDBRANCH  21  24
ENDBRANCH  17  18
ENDBRANCH  16  17
ENDBRANCH  15  16
ENDBRANCH   1  15
BRANCH   6  28
HETATM   28  C   LIG     1      -2.543  -3.998  -1.555  1.00  0.00     0.417 C 
HETATM   29  F   LIG     1      -3.474  -3.884  -2.572  1.00  0.00    -0.166 F 
HETATM   30  F   LIG     1      -2.786  -5.170  -0.858  1.00  0.00    -0.166 F 
HETATM   31  F   LIG     1      -1.277  -4.072  -2.108  1.00  0.00    -0.166 F 
ENDBRANCH   6  28
TORSDOF 8
