MODEL 1
REMARK VINA RESULT:      -6.6      0.000      0.000
REMARK  6 active torsions:
REMARK  status: ('A' for Active; 'I' for Inactive)
REMARK    1  A    between atoms: N_1  and  C_2 
REMARK    2  A    between atoms: N_10  and  C1*_11 
REMARK    3  A    between atoms: C4*_13  and  C5*_14 
REMARK    4  A    between atoms: C5*_14  and  O5*_15 
REMARK    5  A    between atoms: C3*_16  and  O3*_19 
REMARK    6  A    between atoms: C2*_17  and  O2*_18 
ROOT
HETATM    1  C   LIG     1      14.156  31.517  16.741  1.00  0.00     0.136 A 
HETATM    2  N   LIG     1      14.325  32.656  17.475  1.00  0.00    -0.224 NA
HETATM    3  C   LIG     1      15.122  33.681  17.034  1.00  0.00     0.237 A 
HETATM    4  N   LIG     1      15.772  33.586  15.837  1.00  0.00    -0.223 NA
HETATM    5  C   LIG     1      15.614  32.456  15.105  1.00  0.00     0.147 A 
HETATM    6  C   LIG     1      14.824  31.427  15.522  1.00  0.00     0.057 A 
HETATM    7  C   LIG     1      14.858  30.457  14.539  1.00  0.00     0.036 A 
HETATM    8  C   LIG     1      15.691  30.972  13.547  1.00  0.00     0.096 A 
HETATM    9  N   LIG     1      16.161  32.192  13.904  1.00  0.00    -0.311 N 
ENDROOT
BRANCH   9  10
HETATM   10  C1* LIG     1      17.006  33.071  13.090  1.00  0.00     0.261 C 
HETATM   11  C2* LIG     1      17.969  33.870  13.980  1.00  0.00     0.198 C 
HETATM   12  C3* LIG     1      19.339  33.624  13.369  1.00  0.00     0.182 C 
HETATM   13  C4* LIG     1      19.042  32.841  12.084  1.00  0.00     0.179 C 
HETATM   14  O4* LIG     1      17.743  32.300  12.166  1.00  0.00    -0.353 OA
BRANCH  11  15
HETATM   15  O2* LIG     1      17.621  35.234  14.036  1.00  0.00    -0.388 OA
HETATM   16  H2* LIG     1      16.656  35.319  13.826  1.00  0.00     0.210 HD
ENDBRANCH  11  15
BRANCH  12  17
HETATM   17  O3* LIG     1      20.050  34.814  13.124  1.00  0.00    -0.390 OA
HETATM   18  H3* LIG     1      19.382  35.483  12.821  1.00  0.00     0.210 HD
ENDBRANCH  12  17
BRANCH  13  19
HETATM   19  C5* LIG     1      19.192  33.643  10.778  1.00  0.00     0.198 C 
BRANCH  19  20
HETATM   20  O5* LIG     1      18.388  34.789  10.801  1.00  0.00    -0.398 OA
HETATM   21  H5* LIG     1      17.604  34.587  10.228  1.00  0.00     0.209 HD
ENDBRANCH  19  20
ENDBRANCH  13  19
ENDBRANCH   9  10
BRANCH   1  22
HETATM   22  N   LIG     1      13.315  30.467  17.222  1.00  0.00    -0.383 N 
HETATM   23  H   LIG     1      12.689  30.632  18.041  1.00  0.00     0.157 HD
HETATM   24  H   LIG     1      13.309  29.527  16.768  1.00  0.00     0.157 HD
ENDBRANCH   1  22
TORSDOF 6
ENDMDL
MODEL 2
REMARK VINA RESULT:      -6.5      3.311      5.662
REMARK  6 active torsions:
REMARK  status: ('A' for Active; 'I' for Inactive)
REMARK    1  A    between atoms: N_1  and  C_2 
REMARK    2  A    between atoms: N_10  and  C1*_11 
REMARK    3  A    between atoms: C4*_13  and  C5*_14 
REMARK    4  A    between atoms: C5*_14  and  O5*_15 
REMARK    5  A    between atoms: C3*_16  and  O3*_19 
REMARK    6  A    between atoms: C2*_17  and  O2*_18 
ROOT
HETATM    1  C   LIG     1      15.429  33.515  16.783  1.00  0.00     0.136 A 
HETATM    2  N   LIG     1      16.416  33.853  15.902  1.00  0.00    -0.224 NA
HETATM    3  C   LIG     1      16.643  33.120  14.765  1.00  0.00     0.237 A 
HETATM    4  N   LIG     1      15.877  32.025  14.483  1.00  0.00    -0.223 NA
HETATM    5  C   LIG     1      14.898  31.680  15.356  1.00  0.00     0.147 A 
HETATM    6  C   LIG     1      14.654  32.396  16.489  1.00  0.00     0.057 A 
HETATM    7  C   LIG     1      13.583  31.800  17.129  1.00  0.00     0.036 A 
HETATM    8  C   LIG     1      13.226  30.724  16.317  1.00  0.00     0.096 A 
HETATM    9  N   LIG     1      14.042  30.648  15.237  1.00  0.00    -0.311 N 
ENDROOT
BRANCH   9  10
HETATM   10  C1* LIG     1      13.934  29.695  14.129  1.00  0.00     0.261 C 
HETATM   11  C2* LIG     1      15.288  29.023  13.859  1.00  0.00     0.198 C 
HETATM   12  C3* LIG     1      14.980  27.535  13.872  1.00  0.00     0.182 C 
HETATM   13  C4* LIG     1      13.452  27.468  13.983  1.00  0.00     0.179 C 
HETATM   14  O4* LIG     1      12.971  28.712  14.441  1.00  0.00    -0.353 OA
BRANCH  11  15
HETATM   15  O2* LIG     1      15.859  29.463  12.649  1.00  0.00    -0.388 OA
HETATM   16  H2* LIG     1      16.373  28.712  12.255  1.00  0.00     0.210 HD
ENDBRANCH  11  15
BRANCH  12  17
HETATM   17  O3* LIG     1      15.468  26.866  12.734  1.00  0.00    -0.390 OA
HETATM   18  H3* LIG     1      15.828  25.998  13.051  1.00  0.00     0.210 HD
ENDBRANCH  12  17
BRANCH  13  19
HETATM   19  C5* LIG     1      12.717  27.068  12.691  1.00  0.00     0.198 C 
BRANCH  19  20
HETATM   20  O5* LIG     1      11.422  27.601  12.668  1.00  0.00    -0.398 OA
HETATM   21  H5* LIG     1      11.051  27.382  11.775  1.00  0.00     0.209 HD
ENDBRANCH  19  20
ENDBRANCH  13  19
ENDBRANCH   9  10
BRANCH   1  22
HETATM   22  N   LIG     1      15.210  34.299  17.957  1.00  0.00    -0.383 N 
HETATM   23  H   LIG     1      15.873  35.066  18.204  1.00  0.00     0.157 HD
HETATM   24  H   LIG     1      14.393  34.122  18.583  1.00  0.00     0.157 HD
ENDBRANCH   1  22
TORSDOF 6
ENDMDL
MODEL 3
REMARK VINA RESULT:      -6.5      1.626      2.934
REMARK  6 active torsions:
REMARK  status: ('A' for Active; 'I' for Inactive)
REMARK    1  A    between atoms: N_1  and  C_2 
REMARK    2  A    between atoms: N_10  and  C1*_11 
REMARK    3  A    between atoms: C4*_13  and  C5*_14 
REMARK    4  A    between atoms: C5*_14  and  O5*_15 
REMARK    5  A    between atoms: C3*_16  and  O3*_19 
REMARK    6  A    between atoms: C2*_17  and  O2*_18 
ROOT
HETATM    1  C   LIG     1      15.334  32.192  15.820  1.00  0.00     0.136 A 
HETATM    2  N   LIG     1      14.858  31.061  15.221  1.00  0.00    -0.224 NA
HETATM    3  C   LIG     1      15.303  30.663  13.986  1.00  0.00     0.237 A 
HETATM    4  N   LIG     1      16.241  31.397  13.319  1.00  0.00    -0.223 NA
HETATM    5  C   LIG     1      16.714  32.525  13.905  1.00  0.00     0.147 A 
HETATM    6  C   LIG     1      16.289  32.936  15.132  1.00  0.00     0.057 A 
HETATM    7  C   LIG     1      16.986  34.089  15.443  1.00  0.00     0.036 A 
HETATM    8  C   LIG     1      17.823  34.315  14.352  1.00  0.00     0.096 A 
HETATM    9  N   LIG     1      17.644  33.361  13.407  1.00  0.00    -0.311 N 
ENDROOT
BRANCH   9  10
HETATM   10  C1* LIG     1      18.393  33.226  12.153  1.00  0.00     0.261 C 
HETATM   11  C2* LIG     1      18.716  34.606  11.565  1.00  0.00     0.198 C 
HETATM   12  C3* LIG     1      20.215  34.568  11.316  1.00  0.00     0.182 C 
HETATM   13  C4* LIG     1      20.611  33.119  11.625  1.00  0.00     0.179 C 
HETATM   14  O4* LIG     1      19.590  32.518  12.389  1.00  0.00    -0.353 OA
BRANCH  11  15
HETATM   15  O2* LIG     1      17.965  34.869  10.402  1.00  0.00    -0.388 OA
HETATM   16  H2* LIG     1      18.297  35.713  10.001  1.00  0.00     0.210 HD
ENDBRANCH  11  15
BRANCH  12  17
HETATM   17  O3* LIG     1      20.562  34.956  10.008  1.00  0.00    -0.390 OA
HETATM   18  H3* LIG     1      20.038  35.775   9.810  1.00  0.00     0.210 HD
ENDBRANCH  12  17
BRANCH  13  19
HETATM   19  C5* LIG     1      20.923  32.248  10.394  1.00  0.00     0.198 C 
BRANCH  19  20
HETATM   20  O5* LIG     1      20.584  30.910  10.631  1.00  0.00    -0.398 OA
HETATM   21  H5* LIG     1      19.899  30.923  11.348  1.00  0.00     0.209 HD
ENDBRANCH  19  20
ENDBRANCH  13  19
ENDBRANCH   9  10
BRANCH   1  22
HETATM   22  N   LIG     1      14.859  32.580  17.110  1.00  0.00    -0.383 N 
HETATM   23  H   LIG     1      14.291  33.450  17.217  1.00  0.00     0.157 HD
HETATM   24  H   LIG     1      15.066  32.009  17.959  1.00  0.00     0.157 HD
ENDBRANCH   1  22
TORSDOF 6
ENDMDL
MODEL 4
REMARK VINA RESULT:      -6.1      5.043      7.349
REMARK  6 active torsions:
REMARK  status: ('A' for Active; 'I' for Inactive)
REMARK    1  A    between atoms: N_1  and  C_2 
REMARK    2  A    between atoms: N_10  and  C1*_11 
REMARK    3  A    between atoms: C4*_13  and  C5*_14 
REMARK    4  A    between atoms: C5*_14  and  O5*_15 
REMARK    5  A    between atoms: C3*_16  and  O3*_19 
REMARK    6  A    between atoms: C2*_17  and  O2*_18 
ROOT
HETATM    1  C   LIG     1      17.021  37.808  22.015  1.00  0.00     0.136 A 
HETATM    2  N   LIG     1      18.177  38.113  21.355  1.00  0.00    -0.224 NA
HETATM    3  C   LIG     1      18.616  37.363  20.295  1.00  0.00     0.237 A 
HETATM    4  N   LIG     1      17.901  36.281  19.870  1.00  0.00    -0.223 NA
HETATM    5  C   LIG     1      16.755  35.967  20.524  1.00  0.00     0.147 A 
HETATM    6  C   LIG     1      16.298  36.701  21.577  1.00  0.00     0.057 A 
HETATM    7  C   LIG     1      15.105  36.136  21.986  1.00  0.00     0.036 A 
HETATM    8  C   LIG     1      14.899  35.058  21.126  1.00  0.00     0.096 A 
HETATM    9  N   LIG     1      15.918  34.952  20.239  1.00  0.00    -0.311 N 
ENDROOT
BRANCH   9  10
HETATM   10  C1* LIG     1      16.019  33.987  19.140  1.00  0.00     0.261 C 
HETATM   11  C2* LIG     1      15.156  32.750  19.425  1.00  0.00     0.198 C 
HETATM   12  C3* LIG     1      14.303  32.590  18.178  1.00  0.00     0.182 C 
HETATM   13  C4* LIG     1      14.853  33.643  17.208  1.00  0.00     0.179 C 
HETATM   14  O4* LIG     1      15.599  34.592  17.937  1.00  0.00    -0.353 OA
BRANCH  11  15
HETATM   15  O2* LIG     1      15.943  31.616  19.710  1.00  0.00    -0.388 OA
HETATM   16  H2* LIG     1      15.341  30.886  20.005  1.00  0.00     0.210 HD
ENDBRANCH  11  15
BRANCH  12  17
HETATM   17  O3* LIG     1      14.351  31.289  17.645  1.00  0.00    -0.390 OA
HETATM   18  H3* LIG     1      14.092  30.674  18.380  1.00  0.00     0.210 HD
ENDBRANCH  12  17
BRANCH  13  19
HETATM   19  C5* LIG     1      15.703  33.089  16.051  1.00  0.00     0.198 C 
BRANCH  19  20
HETATM   20  O5* LIG     1      16.593  34.060  15.575  1.00  0.00    -0.398 OA
HETATM   21  H5* LIG     1      16.142  34.934  15.708  1.00  0.00     0.209 HD
ENDBRANCH  19  20
ENDBRANCH  13  19
ENDBRANCH   9  10
BRANCH   1  22
HETATM   22  N   LIG     1      16.583  38.610  23.113  1.00  0.00    -0.383 N 
HETATM   23  H   LIG     1      16.241  38.156  23.988  1.00  0.00     0.157 HD
HETATM   24  H   LIG     1      16.597  39.653  23.062  1.00  0.00     0.157 HD
ENDBRANCH   1  22
TORSDOF 6
ENDMDL
MODEL 5
REMARK VINA RESULT:      -5.8      4.838      7.051
REMARK  6 active torsions:
REMARK  status: ('A' for Active; 'I' for Inactive)
REMARK    1  A    between atoms: N_1  and  C_2 
REMARK    2  A    between atoms: N_10  and  C1*_11 
REMARK    3  A    between atoms: C4*_13  and  C5*_14 
REMARK    4  A    between atoms: C5*_14  and  O5*_15 
REMARK    5  A    between atoms: C3*_16  and  O3*_19 
REMARK    6  A    between atoms: C2*_17  and  O2*_18 
ROOT
HETATM    1  C   LIG     1      14.551  31.985  17.636  1.00  0.00     0.136 A 
HETATM    2  N   LIG     1      14.765  32.635  16.454  1.00  0.00    -0.224 NA
HETATM    3  C   LIG     1      15.235  33.923  16.421  1.00  0.00     0.237 A 
HETATM    4  N   LIG     1      15.501  34.592  17.581  1.00  0.00    -0.223 NA
HETATM    5  C   LIG     1      15.285  33.956  18.758  1.00  0.00     0.147 A 
HETATM    6  C   LIG     1      14.823  32.675  18.814  1.00  0.00     0.057 A 
HETATM    7  C   LIG     1      14.746  32.324  20.148  1.00  0.00     0.036 A 
HETATM    8  C   LIG     1      15.184  33.447  20.847  1.00  0.00     0.096 A 
HETATM    9  N   LIG     1      15.503  34.449  19.991  1.00  0.00    -0.311 N 
ENDROOT
BRANCH   9  10
HETATM   10  C1* LIG     1      16.063  35.755  20.349  1.00  0.00     0.261 C 
HETATM   11  C2* LIG     1      15.953  35.995  21.861  1.00  0.00     0.198 C 
HETATM   12  C3* LIG     1      17.361  36.375  22.287  1.00  0.00     0.182 C 
HETATM   13  C4* LIG     1      18.136  36.485  20.967  1.00  0.00     0.179 C 
HETATM   14  O4* LIG     1      17.417  35.814  19.957  1.00  0.00    -0.353 OA
BRANCH  11  15
HETATM   15  O2* LIG     1      14.994  36.982  22.167  1.00  0.00    -0.388 OA
HETATM   16  H2* LIG     1      15.123  37.744  21.546  1.00  0.00     0.210 HD
ENDBRANCH  11  15
BRANCH  12  17
HETATM   17  O3* LIG     1      17.404  37.565  23.038  1.00  0.00    -0.390 OA
HETATM   18  H3* LIG     1      17.602  38.295  22.396  1.00  0.00     0.210 HD
ENDBRANCH  12  17
BRANCH  13  19
HETATM   19  C5* LIG     1      18.458  37.920  20.513  1.00  0.00     0.198 C 
BRANCH  19  20
HETATM   20  O5* LIG     1      18.895  37.936  19.183  1.00  0.00    -0.398 OA
HETATM   21  H5* LIG     1      19.872  38.108  19.217  1.00  0.00     0.209 HD
ENDBRANCH  19  20
ENDBRANCH  13  19
ENDBRANCH   9  10
BRANCH   1  22
HETATM   22  N   LIG     1      14.067  30.641  17.642  1.00  0.00    -0.383 N 
HETATM   23  H   LIG     1      13.895  30.143  16.740  1.00  0.00     0.157 HD
HETATM   24  H   LIG     1      13.879  30.136  18.537  1.00  0.00     0.157 HD
ENDBRANCH   1  22
TORSDOF 6
ENDMDL
MODEL 6
REMARK VINA RESULT:      -5.2      7.719     10.240
REMARK  6 active torsions:
REMARK  status: ('A' for Active; 'I' for Inactive)
REMARK    1  A    between atoms: N_1  and  C_2 
REMARK    2  A    between atoms: N_10  and  C1*_11 
REMARK    3  A    between atoms: C4*_13  and  C5*_14 
REMARK    4  A    between atoms: C5*_14  and  O5*_15 
REMARK    5  A    between atoms: C3*_16  and  O3*_19 
REMARK    6  A    between atoms: C2*_17  and  O2*_18 
ROOT
HETATM    1  C   LIG     1      16.334  35.275  18.813  1.00  0.00     0.136 A 
HETATM    2  N   LIG     1      17.384  35.977  18.295  1.00  0.00    -0.224 NA
HETATM    3  C   LIG     1      18.282  36.624  19.105  1.00  0.00     0.237 A 
HETATM    4  N   LIG     1      18.146  36.581  20.463  1.00  0.00    -0.223 NA
HETATM    5  C   LIG     1      17.102  35.890  20.985  1.00  0.00     0.147 A 
HETATM    6  C   LIG     1      16.201  35.237  20.199  1.00  0.00     0.057 A 
HETATM    7  C   LIG     1      15.296  34.617  21.039  1.00  0.00     0.036 A 
HETATM    8  C   LIG     1      15.717  34.938  22.329  1.00  0.00     0.096 A 
HETATM    9  N   LIG     1      16.817  35.728  22.290  1.00  0.00    -0.311 N 
ENDROOT
BRANCH   9  10
HETATM   10  C1* LIG     1      17.584  36.210  23.442  1.00  0.00     0.261 C 
HETATM   11  C2* LIG     1      17.259  37.682  23.731  1.00  0.00     0.198 C 
HETATM   12  C3* LIG     1      16.901  37.707  25.208  1.00  0.00     0.182 C 
HETATM   13  C4* LIG     1      17.205  36.284  25.693  1.00  0.00     0.179 C 
HETATM   14  O4* LIG     1      17.282  35.426  24.576  1.00  0.00    -0.353 OA
BRANCH  11  15
HETATM   15  O2* LIG     1      18.335  38.531  23.406  1.00  0.00    -0.388 OA
HETATM   16  H2* LIG     1      17.996  39.461  23.362  1.00  0.00     0.210 HD
ENDBRANCH  11  15
BRANCH  12  17
HETATM   17  O3* LIG     1      17.612  38.685  25.927  1.00  0.00    -0.390 OA
HETATM   18  H3* LIG     1      18.240  38.197  26.520  1.00  0.00     0.210 HD
ENDBRANCH  12  17
BRANCH  13  19
HETATM   19  C5* LIG     1      18.476  36.140  26.549  1.00  0.00     0.198 C 
BRANCH  19  20
HETATM   20  O5* LIG     1      18.891  34.804  26.606  1.00  0.00    -0.398 OA
HETATM   21  H5* LIG     1      19.748  34.761  26.108  1.00  0.00     0.209 HD
ENDBRANCH  19  20
ENDBRANCH  13  19
ENDBRANCH   9  10
BRANCH   1  22
HETATM   22  N   LIG     1      15.417  34.604  17.947  1.00  0.00    -0.383 N 
HETATM   23  H   LIG     1      14.396  34.810  18.008  1.00  0.00     0.157 HD
HETATM   24  H   LIG     1      15.747  33.905  17.245  1.00  0.00     0.157 HD
ENDBRANCH   1  22
TORSDOF 6
ENDMDL
MODEL 7
REMARK VINA RESULT:      -5.2      6.079      8.573
REMARK  6 active torsions:
REMARK  status: ('A' for Active; 'I' for Inactive)
REMARK    1  A    between atoms: N_1  and  C_2 
REMARK    2  A    between atoms: N_10  and  C1*_11 
REMARK    3  A    between atoms: C4*_13  and  C5*_14 
REMARK    4  A    between atoms: C5*_14  and  O5*_15 
REMARK    5  A    between atoms: C3*_16  and  O3*_19 
REMARK    6  A    between atoms: C2*_17  and  O2*_18 
ROOT
HETATM    1  C   LIG     1      18.212  38.493  22.222  1.00  0.00     0.136 A 
HETATM    2  N   LIG     1      17.353  38.568  23.280  1.00  0.00    -0.224 NA
HETATM    3  C   LIG     1      16.236  37.777  23.354  1.00  0.00     0.237 A 
HETATM    4  N   LIG     1      15.953  36.884  22.360  1.00  0.00    -0.223 NA
HETATM    5  C   LIG     1      16.798  36.807  21.302  1.00  0.00     0.147 A 
HETATM    6  C   LIG     1      17.915  37.582  21.211  1.00  0.00     0.057 A 
HETATM    7  C   LIG     1      18.561  37.234  20.040  1.00  0.00     0.036 A 
HETATM    8  C   LIG     1      17.774  36.233  19.472  1.00  0.00     0.096 A 
HETATM    9  N   LIG     1      16.689  35.983  20.244  1.00  0.00    -0.311 N 
ENDROOT
BRANCH   9  10
HETATM   10  C1* LIG     1      15.672  34.954  20.010  1.00  0.00     0.261 C 
HETATM   11  C2* LIG     1      15.703  34.486  18.548  1.00  0.00     0.198 C 
HETATM   12  C3* LIG     1      15.800  32.972  18.638  1.00  0.00     0.182 C 
HETATM   13  C4* LIG     1      15.653  32.674  20.136  1.00  0.00     0.179 C 
HETATM   14  O4* LIG     1      15.903  33.855  20.864  1.00  0.00    -0.353 OA
BRANCH  11  15
HETATM   15  O2* LIG     1      14.573  34.929  17.832  1.00  0.00    -0.388 OA
HETATM   16  H2* LIG     1      13.865  35.167  18.484  1.00  0.00     0.210 HD
ENDBRANCH  11  15
BRANCH  12  17
HETATM   17  O3* LIG     1      14.830  32.314  17.860  1.00  0.00    -0.390 OA
HETATM   18  H3* LIG     1      14.982  31.341  17.985  1.00  0.00     0.210 HD
ENDBRANCH  12  17
BRANCH  13  19
HETATM   19  C5* LIG     1      14.297  32.080  20.556  1.00  0.00     0.198 C 
BRANCH  19  20
HETATM   20  O5* LIG     1      13.728  32.822  21.599  1.00  0.00    -0.398 OA
HETATM   21  H5* LIG     1      13.756  32.237  22.399  1.00  0.00     0.209 HD
ENDBRANCH  19  20
ENDBRANCH  13  19
ENDBRANCH   9  10
BRANCH   1  22
HETATM   22  N   LIG     1      19.372  39.325  22.172  1.00  0.00    -0.383 N 
HETATM   23  H   LIG     1      19.873  39.575  23.053  1.00  0.00     0.157 HD
HETATM   24  H   LIG     1      19.737  39.693  21.266  1.00  0.00     0.157 HD
ENDBRANCH   1  22
TORSDOF 6
ENDMDL
MODEL 8
REMARK VINA RESULT:      -4.9      5.107      7.609
REMARK  6 active torsions:
REMARK  status: ('A' for Active; 'I' for Inactive)
REMARK    1  A    between atoms: N_1  and  C_2 
REMARK    2  A    between atoms: N_10  and  C1*_11 
REMARK    3  A    between atoms: C4*_13  and  C5*_14 
REMARK    4  A    between atoms: C5*_14  and  O5*_15 
REMARK    5  A    between atoms: C3*_16  and  O3*_19 
REMARK    6  A    between atoms: C2*_17  and  O2*_18 
ROOT
HETATM    1  C   LIG     1      14.260  32.225  17.221  1.00  0.00     0.136 A 
HETATM    2  N   LIG     1      14.547  33.257  16.375  1.00  0.00    -0.224 NA
HETATM    3  C   LIG     1      15.225  34.368  16.805  1.00  0.00     0.237 A 
HETATM    4  N   LIG     1      15.634  34.470  18.103  1.00  0.00    -0.223 NA
HETATM    5  C   LIG     1      15.348  33.452  18.952  1.00  0.00     0.147 A 
HETATM    6  C   LIG     1      14.679  32.337  18.545  1.00  0.00     0.057 A 
HETATM    7  C   LIG     1      14.583  31.494  19.636  1.00  0.00     0.036 A 
HETATM    8  C   LIG     1      15.224  32.167  20.674  1.00  0.00     0.096 A 
HETATM    9  N   LIG     1      15.681  33.371  20.253  1.00  0.00    -0.311 N 
ENDROOT
BRANCH   9  10
HETATM   10  C1* LIG     1      16.464  34.329  21.040  1.00  0.00     0.261 C 
HETATM   11  C2* LIG     1      16.412  35.724  20.402  1.00  0.00     0.198 C 
HETATM   12  C3* LIG     1      15.987  36.642  21.535  1.00  0.00     0.182 C 
HETATM   13  C4* LIG     1      15.987  35.736  22.773  1.00  0.00     0.179 C 
HETATM   14  O4* LIG     1      15.958  34.390  22.355  1.00  0.00    -0.353 OA
BRANCH  11  15
HETATM   15  O2* LIG     1      17.647  36.084  19.827  1.00  0.00    -0.388 OA
HETATM   16  H2* LIG     1      18.368  35.852  20.467  1.00  0.00     0.210 HD
ENDBRANCH  11  15
BRANCH  12  17
HETATM   17  O3* LIG     1      16.834  37.757  21.683  1.00  0.00    -0.390 OA
HETATM   18  H3* LIG     1      17.498  37.515  22.379  1.00  0.00     0.210 HD
ENDBRANCH  12  17
BRANCH  13  19
HETATM   19  C5* LIG     1      17.160  35.955  23.746  1.00  0.00     0.198 C 
BRANCH  19  20
HETATM   20  O5* LIG     1      16.933  37.074  24.557  1.00  0.00    -0.398 OA
HETATM   21  H5* LIG     1      17.542  37.783  24.224  1.00  0.00     0.209 HD
ENDBRANCH  19  20
ENDBRANCH  13  19
ENDBRANCH   9  10
BRANCH   1  22
HETATM   22  N   LIG     1      13.557  31.075  16.746  1.00  0.00    -0.383 N 
HETATM   23  H   LIG     1      13.278  31.012  15.742  1.00  0.00     0.157 HD
HETATM   24  H   LIG     1      13.313  30.286  17.385  1.00  0.00     0.157 HD
ENDBRANCH   1  22
TORSDOF 6
ENDMDL
MODEL 9
REMARK VINA RESULT:      -4.9      4.927      6.878
REMARK  6 active torsions:
REMARK  status: ('A' for Active; 'I' for Inactive)
REMARK    1  A    between atoms: N_1  and  C_2 
REMARK    2  A    between atoms: N_10  and  C1*_11 
REMARK    3  A    between atoms: C4*_13  and  C5*_14 
REMARK    4  A    between atoms: C5*_14  and  O5*_15 
REMARK    5  A    between atoms: C3*_16  and  O3*_19 
REMARK    6  A    between atoms: C2*_17  and  O2*_18 
ROOT
HETATM    1  C   LIG     1      14.348  31.336  17.704  1.00  0.00     0.136 A 
HETATM    2  N   LIG     1      14.300  30.658  18.888  1.00  0.00    -0.224 NA
HETATM    3  C   LIG     1      14.646  31.258  20.072  1.00  0.00     0.237 A 
HETATM    4  N   LIG     1      15.050  32.562  20.094  1.00  0.00    -0.223 NA
HETATM    5  C   LIG     1      15.106  33.241  18.921  1.00  0.00     0.147 A 
HETATM    6  C   LIG     1      14.764  32.665  17.735  1.00  0.00     0.057 A 
HETATM    7  C   LIG     1      14.902  33.629  16.755  1.00  0.00     0.036 A 
HETATM    8  C   LIG     1      15.331  34.773  17.426  1.00  0.00     0.096 A 
HETATM    9  N   LIG     1      15.466  34.527  18.752  1.00  0.00    -0.311 N 
ENDROOT
BRANCH   9  10
HETATM   10  C1* LIG     1      15.829  35.500  19.786  1.00  0.00     0.261 C 
HETATM   11  C2* LIG     1      15.657  34.893  21.185  1.00  0.00     0.198 C 
HETATM   12  C3* LIG     1      16.989  35.144  21.872  1.00  0.00     0.182 C 
HETATM   13  C4* LIG     1      17.766  36.017  20.878  1.00  0.00     0.179 C 
HETATM   14  O4* LIG     1      17.168  35.906  19.606  1.00  0.00    -0.353 OA
BRANCH  11  15
HETATM   15  O2* LIG     1      14.563  35.457  21.871  1.00  0.00    -0.388 OA
HETATM   16  H2* LIG     1      13.852  35.658  21.210  1.00  0.00     0.210 HD
ENDBRANCH  11  15
BRANCH  12  17
HETATM   17  O3* LIG     1      16.849  35.754  23.132  1.00  0.00    -0.390 OA
HETATM   18  H3* LIG     1      16.739  36.725  22.963  1.00  0.00     0.210 HD
ENDBRANCH  12  17
BRANCH  13  19
HETATM   19  C5* LIG     1      17.890  37.501  21.268  1.00  0.00     0.198 C 
BRANCH  19  20
HETATM   20  O5* LIG     1      18.684  38.195  20.346  1.00  0.00    -0.398 OA
HETATM   21  H5* LIG     1      19.624  38.013  20.601  1.00  0.00     0.209 HD
ENDBRANCH  19  20
ENDBRANCH  13  19
ENDBRANCH   9  10
BRANCH   1  22
HETATM   22  N   LIG     1      13.977  30.688  16.486  1.00  0.00    -0.383 N 
HETATM   23  H   LIG     1      12.976  30.667  16.190  1.00  0.00     0.157 HD
HETATM   24  H   LIG     1      14.690  30.230  15.876  1.00  0.00     0.157 HD
ENDBRANCH   1  22
TORSDOF 6
ENDMDL
MODEL 10
REMARK VINA RESULT:      -4.7      6.834      9.284
REMARK  6 active torsions:
REMARK  status: ('A' for Active; 'I' for Inactive)
REMARK    1  A    between atoms: N_1  and  C_2 
REMARK    2  A    between atoms: N_10  and  C1*_11 
REMARK    3  A    between atoms: C4*_13  and  C5*_14 
REMARK    4  A    between atoms: C5*_14  and  O5*_15 
REMARK    5  A    between atoms: C3*_16  and  O3*_19 
REMARK    6  A    between atoms: C2*_17  and  O2*_18 
ROOT
HETATM    1  C   LIG     1      18.279  39.364  21.962  1.00  0.00     0.136 A 
HETATM    2  N   LIG     1      17.649  39.395  23.173  1.00  0.00    -0.224 NA
HETATM    3  C   LIG     1      16.912  38.331  23.625  1.00  0.00     0.237 A 
HETATM    4  N   LIG     1      16.789  37.203  22.865  1.00  0.00    -0.223 NA
HETATM    5  C   LIG     1      17.406  37.166  21.658  1.00  0.00     0.147 A 
HETATM    6  C   LIG     1      18.147  38.211  21.193  1.00  0.00     0.057 A 
HETATM    7  C   LIG     1      18.656  37.838  19.963  1.00  0.00     0.036 A 
HETATM    8  C   LIG     1      18.182  36.545  19.749  1.00  0.00     0.096 A 
HETATM    9  N   LIG     1      17.407  36.142  20.786  1.00  0.00    -0.311 N 
ENDROOT
BRANCH   9  10
HETATM   10  C1* LIG     1      16.792  34.822  20.951  1.00  0.00     0.261 C 
HETATM   11  C2* LIG     1      15.570  34.907  21.877  1.00  0.00     0.198 C 
HETATM   12  C3* LIG     1      14.454  34.239  21.091  1.00  0.00     0.182 C 
HETATM   13  C4* LIG     1      15.154  33.677  19.847  1.00  0.00     0.179 C 
HETATM   14  O4* LIG     1      16.399  34.320  19.692  1.00  0.00    -0.353 OA
BRANCH  11  15
HETATM   15  O2* LIG     1      15.814  34.297  23.124  1.00  0.00    -0.388 OA
HETATM   16  H2* LIG     1      16.097  35.000  23.764  1.00  0.00     0.210 HD
ENDBRANCH  11  15
BRANCH  12  17
HETATM   17  O3* LIG     1      13.784  33.245  21.829  1.00  0.00    -0.390 OA
HETATM   18  H3* LIG     1      14.115  32.373  21.490  1.00  0.00     0.210 HD
ENDBRANCH  12  17
BRANCH  13  19
HETATM   19  C5* LIG     1      15.350  32.150  19.839  1.00  0.00     0.198 C 
BRANCH  19  20
HETATM   20  O5* LIG     1      14.176  31.498  19.444  1.00  0.00    -0.398 OA
HETATM   21  H5* LIG     1      14.007  31.779  18.508  1.00  0.00     0.209 HD
ENDBRANCH  19  20
ENDBRANCH  13  19
ENDBRANCH   9  10
BRANCH   1  22
HETATM   22  N   LIG     1      19.046  40.485  21.519  1.00  0.00    -0.383 N 
HETATM   23  H   LIG     1      19.765  40.363  20.772  1.00  0.00     0.157 HD
HETATM   24  H   LIG     1      18.904  41.435  21.928  1.00  0.00     0.157 HD
ENDBRANCH   1  22
TORSDOF 6
ENDMDL
MODEL 11
REMARK VINA RESULT:      -4.7      3.540      5.512
REMARK  6 active torsions:
REMARK  status: ('A' for Active; 'I' for Inactive)
REMARK    1  A    between atoms: N_1  and  C_2 
REMARK    2  A    between atoms: N_10  and  C1*_11 
REMARK    3  A    between atoms: C4*_13  and  C5*_14 
REMARK    4  A    between atoms: C5*_14  and  O5*_15 
REMARK    5  A    between atoms: C3*_16  and  O3*_19 
REMARK    6  A    between atoms: C2*_17  and  O2*_18 
ROOT
HETATM    1  C   LIG     1      15.986  34.294  20.533  1.00  0.00     0.136 A 
HETATM    2  N   LIG     1      16.338  35.382  19.787  1.00  0.00    -0.224 NA
HETATM    3  C   LIG     1      16.127  35.420  18.432  1.00  0.00     0.237 A 
HETATM    4  N   LIG     1      15.554  34.359  17.791  1.00  0.00    -0.223 NA
HETATM    5  C   LIG     1      15.208  33.272  18.525  1.00  0.00     0.147 A 
HETATM    6  C   LIG     1      15.404  33.215  19.872  1.00  0.00     0.057 A 
HETATM    7  C   LIG     1      14.917  31.998  20.308  1.00  0.00     0.036 A 
HETATM    8  C   LIG     1      14.433  31.368  19.162  1.00  0.00     0.096 A 
HETATM    9  N   LIG     1      14.624  32.148  18.070  1.00  0.00    -0.311 N 
ENDROOT
BRANCH   9  10
HETATM   10  C1* LIG     1      14.186  31.854  16.703  1.00  0.00     0.261 C 
HETATM   11  C2* LIG     1      15.391  31.752  15.758  1.00  0.00     0.198 C 
HETATM   12  C3* LIG     1      15.206  30.420  15.052  1.00  0.00     0.182 C 
HETATM   13  C4* LIG     1      13.828  29.934  15.520  1.00  0.00     0.179 C 
HETATM   14  O4* LIG     1      13.465  30.641  16.685  1.00  0.00    -0.353 OA
BRANCH  11  15
HETATM   15  O2* LIG     1      15.458  32.847  14.873  1.00  0.00    -0.388 OA
HETATM   16  H2* LIG     1      16.412  33.078  14.734  1.00  0.00     0.210 HD
ENDBRANCH  11  15
BRANCH  12  17
HETATM   17  O3* LIG     1      15.293  30.526  13.651  1.00  0.00    -0.390 OA
HETATM   18  H3* LIG     1      16.251  30.412  13.420  1.00  0.00     0.210 HD
ENDBRANCH  12  17
BRANCH  13  19
HETATM   19  C5* LIG     1      12.705  30.041  14.474  1.00  0.00     0.198 C 
BRANCH  19  20
HETATM   20  O5* LIG     1      12.538  28.826  13.796  1.00  0.00    -0.398 OA
HETATM   21  H5* LIG     1      12.709  28.113  14.463  1.00  0.00     0.209 HD
ENDBRANCH  19  20
ENDBRANCH  13  19
ENDBRANCH   9  10
BRANCH   1  22
HETATM   22  N   LIG     1      16.211  34.284  21.944  1.00  0.00    -0.383 N 
HETATM   23  H   LIG     1      16.320  33.376  22.449  1.00  0.00     0.157 HD
HETATM   24  H   LIG     1      16.271  35.171  22.490  1.00  0.00     0.157 HD
ENDBRANCH   1  22
TORSDOF 6
ENDMDL
MODEL 12
REMARK VINA RESULT:      -4.6      8.630     11.150
REMARK  6 active torsions:
REMARK  status: ('A' for Active; 'I' for Inactive)
REMARK    1  A    between atoms: N_1  and  C_2 
REMARK    2  A    between atoms: N_10  and  C1*_11 
REMARK    3  A    between atoms: C4*_13  and  C5*_14 
REMARK    4  A    between atoms: C5*_14  and  O5*_15 
REMARK    5  A    between atoms: C3*_16  and  O3*_19 
REMARK    6  A    between atoms: C2*_17  and  O2*_18 
ROOT
HETATM    1  C   LIG     1      18.262  37.179  19.339  1.00  0.00     0.136 A 
HETATM    2  N   LIG     1      18.954  38.334  19.564  1.00  0.00    -0.224 NA
HETATM    3  C   LIG     1      18.994  38.915  20.806  1.00  0.00     0.237 A 
HETATM    4  N   LIG     1      18.336  38.346  21.858  1.00  0.00    -0.223 NA
HETATM    5  C   LIG     1      17.642  37.201  21.641  1.00  0.00     0.147 A 
HETATM    6  C   LIG     1      17.592  36.605  20.417  1.00  0.00     0.057 A 
HETATM    7  C   LIG     1      16.836  35.456  20.550  1.00  0.00     0.036 A 
HETATM    8  C   LIG     1      16.462  35.418  21.892  1.00  0.00     0.096 A 
HETATM    9  N   LIG     1      16.949  36.496  22.554  1.00  0.00    -0.311 N 
ENDROOT
BRANCH   9  10
HETATM   10  C1* LIG     1      16.822  36.766  23.990  1.00  0.00     0.261 C 
HETATM   11  C2* LIG     1      17.540  35.684  24.809  1.00  0.00     0.198 C 
HETATM   12  C3* LIG     1      18.450  36.462  25.745  1.00  0.00     0.182 C 
HETATM   13  C4* LIG     1      18.068  37.928  25.509  1.00  0.00     0.179 C 
HETATM   14  O4* LIG     1      17.375  38.030  24.285  1.00  0.00    -0.353 OA
BRANCH  11  15
HETATM   15  O2* LIG     1      16.629  34.849  25.485  1.00  0.00    -0.388 OA
HETATM   16  H2* LIG     1      15.966  34.513  24.828  1.00  0.00     0.210 HD
ENDBRANCH  11  15
BRANCH  12  17
HETATM   17  O3* LIG     1      18.307  36.077  27.091  1.00  0.00    -0.390 OA
HETATM   18  H3* LIG     1      19.166  35.656  27.356  1.00  0.00     0.210 HD
ENDBRANCH  12  17
BRANCH  13  19
HETATM   19  C5* LIG     1      17.242  38.580  26.632  1.00  0.00     0.198 C 
BRANCH  19  20
HETATM   20  O5* LIG     1      17.160  39.966  26.452  1.00  0.00    -0.398 OA
HETATM   21  H5* LIG     1      18.095  40.290  26.383  1.00  0.00     0.209 HD
ENDBRANCH  19  20
ENDBRANCH  13  19
ENDBRANCH   9  10
BRANCH   1  22
HETATM   22  N   LIG     1      18.242  36.592  18.038  1.00  0.00    -0.383 N 
HETATM   23  H   LIG     1      19.094  36.119  17.664  1.00  0.00     0.157 HD
HETATM   24  H   LIG     1      17.385  36.623  17.442  1.00  0.00     0.157 HD
ENDBRANCH   1  22
TORSDOF 6
ENDMDL
MODEL 13
REMARK VINA RESULT:      -4.6      3.812      5.748
REMARK  6 active torsions:
REMARK  status: ('A' for Active; 'I' for Inactive)
REMARK    1  A    between atoms: N_1  and  C_2 
REMARK    2  A    between atoms: N_10  and  C1*_11 
REMARK    3  A    between atoms: C4*_13  and  C5*_14 
REMARK    4  A    between atoms: C5*_14  and  O5*_15 
REMARK    5  A    between atoms: C3*_16  and  O3*_19 
REMARK    6  A    between atoms: C2*_17  and  O2*_18 
ROOT
HETATM    1  C   LIG     1      12.712  27.238  12.760  1.00  0.00     0.136 A 
HETATM    2  N   LIG     1      11.396  27.599  12.735  1.00  0.00    -0.224 NA
HETATM    3  C   LIG     1      10.954  28.734  13.366  1.00  0.00     0.237 A 
HETATM    4  N   LIG     1      11.828  29.537  14.039  1.00  0.00    -0.223 NA
HETATM    5  C   LIG     1      13.136  29.182  14.073  1.00  0.00     0.147 A 
HETATM    6  C   LIG     1      13.598  28.061  13.450  1.00  0.00     0.057 A 
HETATM    7  C   LIG     1      14.964  28.012  13.652  1.00  0.00     0.036 A 
HETATM    8  C   LIG     1      15.262  29.146  14.407  1.00  0.00     0.096 A 
HETATM    9  N   LIG     1      14.137  29.853  14.672  1.00  0.00    -0.311 N 
ENDROOT
BRANCH   9  10
HETATM   10  C1* LIG     1      14.061  31.135  15.378  1.00  0.00     0.261 C 
HETATM   11  C2* LIG     1      13.685  30.920  16.851  1.00  0.00     0.198 C 
HETATM   12  C3* LIG     1      14.749  31.678  17.627  1.00  0.00     0.182 C 
HETATM   13  C4* LIG     1      15.558  32.405  16.544  1.00  0.00     0.179 C 
HETATM   14  O4* LIG     1      15.305  31.796  15.298  1.00  0.00    -0.353 OA
BRANCH  11  15
HETATM   15  O2* LIG     1      12.375  31.361  17.127  1.00  0.00    -0.388 OA
HETATM   16  H2* LIG     1      12.056  30.897  17.943  1.00  0.00     0.210 HD
ENDBRANCH  11  15
BRANCH  12  17
HETATM   17  O3* LIG     1      14.207  32.561  18.579  1.00  0.00    -0.390 OA
HETATM   18  H3* LIG     1      14.231  32.084  19.449  1.00  0.00     0.210 HD
ENDBRANCH  12  17
BRANCH  13  19
HETATM   19  C5* LIG     1      15.308  33.920  16.446  1.00  0.00     0.198 C 
BRANCH  19  20
HETATM   20  O5* LIG     1      16.417  34.574  15.894  1.00  0.00    -0.398 OA
HETATM   21  H5* LIG     1      16.941  34.921  16.662  1.00  0.00     0.209 HD
ENDBRANCH  19  20
ENDBRANCH  13  19
ENDBRANCH   9  10
BRANCH   1  22
HETATM   22  N   LIG     1      13.148  26.054  12.089  1.00  0.00    -0.383 N 
HETATM   23  H   LIG     1      12.699  25.136  12.305  1.00  0.00     0.157 HD
HETATM   24  H   LIG     1      13.913  26.083  11.379  1.00  0.00     0.157 HD
ENDBRANCH   1  22
TORSDOF 6
ENDMDL
MODEL 14
REMARK VINA RESULT:      -4.5      5.400      7.678
REMARK  6 active torsions:
REMARK  status: ('A' for Active; 'I' for Inactive)
REMARK    1  A    between atoms: N_1  and  C_2 
REMARK    2  A    between atoms: N_10  and  C1*_11 
REMARK    3  A    between atoms: C4*_13  and  C5*_14 
REMARK    4  A    between atoms: C5*_14  and  O5*_15 
REMARK    5  A    between atoms: C3*_16  and  O3*_19 
REMARK    6  A    between atoms: C2*_17  and  O2*_18 
ROOT
HETATM    1  C   LIG     1      14.199  31.891  17.941  1.00  0.00     0.136 A 
HETATM    2  N   LIG     1      14.241  30.892  18.870  1.00  0.00    -0.224 NA
HETATM    3  C   LIG     1      14.886  31.056  20.069  1.00  0.00     0.237 A 
HETATM    4  N   LIG     1      15.508  32.235  20.365  1.00  0.00    -0.223 NA
HETATM    5  C   LIG     1      15.475  33.230  19.445  1.00  0.00     0.147 A 
HETATM    6  C   LIG     1      14.837  33.090  18.249  1.00  0.00     0.057 A 
HETATM    7  C   LIG     1      14.967  34.286  17.570  1.00  0.00     0.036 A 
HETATM    8  C   LIG     1      15.698  35.112  18.424  1.00  0.00     0.096 A 
HETATM    9  N   LIG     1      16.017  34.456  19.566  1.00  0.00    -0.311 N 
ENDROOT
BRANCH   9  10
HETATM   10  C1* LIG     1      16.718  35.017  20.725  1.00  0.00     0.261 C 
HETATM   11  C2* LIG     1      17.392  36.346  20.359  1.00  0.00     0.198 C 
HETATM   12  C3* LIG     1      16.910  37.319  21.421  1.00  0.00     0.182 C 
HETATM   13  C4* LIG     1      16.129  36.442  22.408  1.00  0.00     0.179 C 
HETATM   14  O4* LIG     1      15.803  35.223  21.779  1.00  0.00    -0.353 OA
BRANCH  11  15
HETATM   15  O2* LIG     1      18.795  36.226  20.310  1.00  0.00    -0.388 OA
HETATM   16  H2* LIG     1      19.091  35.707  21.102  1.00  0.00     0.210 HD
ENDBRANCH  11  15
BRANCH  12  17
HETATM   17  O3* LIG     1      17.962  38.021  22.038  1.00  0.00    -0.390 OA
HETATM   18  H3* LIG     1      18.699  37.369  22.165  1.00  0.00     0.210 HD
ENDBRANCH  12  17
BRANCH  13  19
HETATM   19  C5* LIG     1      16.842  36.165  23.744  1.00  0.00     0.198 C 
BRANCH  19  20
HETATM   20  O5* LIG     1      16.756  37.274  24.595  1.00  0.00    -0.398 OA
HETATM   21  H5* LIG     1      17.690  37.561  24.767  1.00  0.00     0.209 HD
ENDBRANCH  19  20
ENDBRANCH  13  19
ENDBRANCH   9  10
BRANCH   1  22
HETATM   22  N   LIG     1      13.515  31.696  16.702  1.00  0.00    -0.383 N 
HETATM   23  H   LIG     1      13.995  31.909  15.801  1.00  0.00     0.157 HD
HETATM   24  H   LIG     1      12.533  31.339  16.675  1.00  0.00     0.157 HD
ENDBRANCH   1  22
TORSDOF 6
ENDMDL
MODEL 15
REMARK VINA RESULT:      -4.4      6.103      8.604
REMARK  6 active torsions:
REMARK  status: ('A' for Active; 'I' for Inactive)
REMARK    1  A    between atoms: N_1  and  C_2 
REMARK    2  A    between atoms: N_10  and  C1*_11 
REMARK    3  A    between atoms: C4*_13  and  C5*_14 
REMARK    4  A    between atoms: C5*_14  and  O5*_15 
REMARK    5  A    between atoms: C3*_16  and  O3*_19 
REMARK    6  A    between atoms: C2*_17  and  O2*_18 
ROOT
HETATM    1  C   LIG     1      18.700  38.481  21.195  1.00  0.00     0.136 A 
HETATM    2  N   LIG     1      19.420  38.085  20.104  1.00  0.00    -0.224 NA
HETATM    3  C   LIG     1      19.030  37.015  19.339  1.00  0.00     0.237 A 
HETATM    4  N   LIG     1      17.902  36.313  19.654  1.00  0.00    -0.223 NA
HETATM    5  C   LIG     1      17.185  36.697  20.739  1.00  0.00     0.147 A 
HETATM    6  C   LIG     1      17.552  37.759  21.511  1.00  0.00     0.057 A 
HETATM    7  C   LIG     1      16.599  37.894  22.503  1.00  0.00     0.036 A 
HETATM    8  C   LIG     1      15.678  36.875  22.265  1.00  0.00     0.096 A 
HETATM    9  N   LIG     1      16.047  36.137  21.191  1.00  0.00    -0.311 N 
ENDROOT
BRANCH   9  10
HETATM   10  C1* LIG     1      15.296  35.027  20.596  1.00  0.00     0.261 C 
HETATM   11  C2* LIG     1      15.714  34.813  19.135  1.00  0.00     0.198 C 
HETATM   12  C3* LIG     1      16.050  33.333  19.052  1.00  0.00     0.182 C 
HETATM   13  C4* LIG     1      15.645  32.778  20.423  1.00  0.00     0.179 C 
HETATM   14  O4* LIG     1      15.529  33.848  21.334  1.00  0.00    -0.353 OA
BRANCH  11  15
HETATM   15  O2* LIG     1      14.700  35.204  18.238  1.00  0.00    -0.388 OA
HETATM   16  H2* LIG     1      14.544  36.177  18.349  1.00  0.00     0.210 HD
ENDBRANCH  11  15
BRANCH  12  17
HETATM   17  O3* LIG     1      15.394  32.682  17.991  1.00  0.00    -0.390 OA
HETATM   18  H3* LIG     1      15.545  33.238  17.183  1.00  0.00     0.210 HD
ENDBRANCH  12  17
BRANCH  13  19
HETATM   19  C5* LIG     1      14.355  31.939  20.436  1.00  0.00     0.198 C 
BRANCH  19  20
HETATM   20  O5* LIG     1      14.569  30.685  19.851  1.00  0.00    -0.398 OA
HETATM   21  H5* LIG     1      13.820  30.109  20.153  1.00  0.00     0.209 HD
ENDBRANCH  19  20
ENDBRANCH  13  19
ENDBRANCH   9  10
BRANCH   1  22
HETATM   22  N   LIG     1      19.124  39.602  21.971  1.00  0.00    -0.383 N 
HETATM   23  H   LIG     1      19.606  39.453  22.885  1.00  0.00     0.157 HD
HETATM   24  H   LIG     1      18.964  40.581  21.643  1.00  0.00     0.157 HD
ENDBRANCH   1  22
TORSDOF 6
ENDMDL
MODEL 16
REMARK VINA RESULT:      -4.2     22.008     23.347
REMARK  6 active torsions:
REMARK  status: ('A' for Active; 'I' for Inactive)
REMARK    1  A    between atoms: N_1  and  C_2 
REMARK    2  A    between atoms: N_10  and  C1*_11 
REMARK    3  A    between atoms: C4*_13  and  C5*_14 
REMARK    4  A    between atoms: C5*_14  and  O5*_15 
REMARK    5  A    between atoms: C3*_16  and  O3*_19 
REMARK    6  A    between atoms: C2*_17  and  O2*_18 
ROOT
HETATM    1  C   LIG     1      27.882  27.358  30.329  1.00  0.00     0.136 A 
HETATM    2  N   LIG     1      28.872  28.233  29.985  1.00  0.00    -0.224 NA
HETATM    3  C   LIG     1      29.366  29.144  30.882  1.00  0.00     0.237 A 
HETATM    4  N   LIG     1      28.874  29.199  32.155  1.00  0.00    -0.223 NA
HETATM    5  C   LIG     1      27.886  28.338  32.502  1.00  0.00     0.147 A 
HETATM    6  C   LIG     1      27.384  27.422  31.628  1.00  0.00     0.057 A 
HETATM    7  C   LIG     1      26.425  26.691  32.304  1.00  0.00     0.036 A 
HETATM    8  C   LIG     1      26.404  27.222  33.593  1.00  0.00     0.096 A 
HETATM    9  N   LIG     1      27.293  28.238  33.706  1.00  0.00    -0.311 N 
ENDROOT
BRANCH   9  10
HETATM   10  C1* LIG     1      27.603  28.992  34.925  1.00  0.00     0.261 C 
HETATM   11  C2* LIG     1      27.051  30.421  34.832  1.00  0.00     0.198 C 
HETATM   12  C3* LIG     1      26.246  30.599  36.108  1.00  0.00     0.182 C 
HETATM   13  C4* LIG     1      26.529  29.324  36.912  1.00  0.00     0.179 C 
HETATM   14  O4* LIG     1      27.043  28.339  36.043  1.00  0.00    -0.353 OA
BRANCH  11  15
HETATM   15  O2* LIG     1      28.081  31.372  34.687  1.00  0.00    -0.388 OA
HETATM   16  H2* LIG     1      27.758  32.238  35.046  1.00  0.00     0.210 HD
ENDBRANCH  11  15
BRANCH  12  17
HETATM   17  O3* LIG     1      26.588  31.768  36.812  1.00  0.00    -0.390 OA
HETATM   18  H3* LIG     1      25.978  31.813  37.594  1.00  0.00     0.210 HD
ENDBRANCH  12  17
BRANCH  13  19
HETATM   19  C5* LIG     1      27.473  29.503  38.114  1.00  0.00     0.198 C 
BRANCH  19  20
HETATM   20  O5* LIG     1      28.610  30.235  37.751  1.00  0.00    -0.398 OA
HETATM   21  H5* LIG     1      28.281  31.019  37.241  1.00  0.00     0.209 HD
ENDBRANCH  19  20
ENDBRANCH  13  19
ENDBRANCH   9  10
BRANCH   1  22
HETATM   22  N   LIG     1      27.389  26.414  29.377  1.00  0.00    -0.383 N 
HETATM   23  H   LIG     1      26.575  26.660  28.771  1.00  0.00     0.157 HD
HETATM   24  H   LIG     1      27.828  25.473  29.269  1.00  0.00     0.157 HD
ENDBRANCH   1  22
TORSDOF 6
ENDMDL
MODEL 17
REMARK VINA RESULT:      -4.2     13.928     15.263
REMARK  6 active torsions:
REMARK  status: ('A' for Active; 'I' for Inactive)
REMARK    1  A    between atoms: N_1  and  C_2 
REMARK    2  A    between atoms: N_10  and  C1*_11 
REMARK    3  A    between atoms: C4*_13  and  C5*_14 
REMARK    4  A    between atoms: C5*_14  and  O5*_15 
REMARK    5  A    between atoms: C3*_16  and  O3*_19 
REMARK    6  A    between atoms: C2*_17  and  O2*_18 
ROOT
HETATM    1  C   LIG     1      28.804  26.245  17.692  1.00  0.00     0.136 A 
HETATM    2  N   LIG     1      29.422  25.490  16.737  1.00  0.00    -0.224 NA
HETATM    3  C   LIG     1      29.075  24.181  16.524  1.00  0.00     0.237 A 
HETATM    4  N   LIG     1      28.093  23.595  17.270  1.00  0.00    -0.223 NA
HETATM    5  C   LIG     1      27.479  24.336  18.225  1.00  0.00     0.147 A 
HETATM    6  C   LIG     1      27.805  25.640  18.451  1.00  0.00     0.057 A 
HETATM    7  C   LIG     1      26.978  26.103  19.456  1.00  0.00     0.036 A 
HETATM    8  C   LIG     1      26.169  25.018  19.791  1.00  0.00     0.096 A 
HETATM    9  N   LIG     1      26.487  23.935  19.042  1.00  0.00    -0.311 N 
ENDROOT
BRANCH   9  10
HETATM   10  C1* LIG     1      25.811  22.634  19.060  1.00  0.00     0.261 C 
HETATM   11  C2* LIG     1      25.074  22.426  20.390  1.00  0.00     0.198 C 
HETATM   12  C3* LIG     1      23.660  22.049  19.983  1.00  0.00     0.182 C 
HETATM   13  C4* LIG     1      23.732  21.909  18.457  1.00  0.00     0.179 C 
HETATM   14  O4* LIG     1      24.892  22.562  17.992  1.00  0.00    -0.353 OA
BRANCH  11  15
HETATM   15  O2* LIG     1      25.702  21.449  21.189  1.00  0.00    -0.388 OA
HETATM   16  H2* LIG     1      24.999  20.951  21.681  1.00  0.00     0.210 HD
ENDBRANCH  11  15
BRANCH  12  17
HETATM   17  O3* LIG     1      23.203  20.876  20.611  1.00  0.00    -0.390 OA
HETATM   18  H3* LIG     1      22.227  20.989  20.744  1.00  0.00     0.210 HD
ENDBRANCH  12  17
BRANCH  13  19
HETATM   19  C5* LIG     1      23.699  20.464  17.929  1.00  0.00     0.198 C 
BRANCH  19  20
HETATM   20  O5* LIG     1      22.391  19.962  17.930  1.00  0.00    -0.398 OA
HETATM   21  H5* LIG     1      22.134  19.863  16.977  1.00  0.00     0.209 HD
ENDBRANCH  19  20
ENDBRANCH  13  19
ENDBRANCH   9  10
BRANCH   1  22
HETATM   22  N   LIG     1      29.181  27.609  17.889  1.00  0.00    -0.383 N 
HETATM   23  H   LIG     1      28.948  28.325  17.166  1.00  0.00     0.157 HD
HETATM   24  H   LIG     1      29.689  27.913  18.749  1.00  0.00     0.157 HD
ENDBRANCH   1  22
TORSDOF 6
ENDMDL
MODEL 18
REMARK VINA RESULT:      -4.0     14.177     14.955
REMARK  6 active torsions:
REMARK  status: ('A' for Active; 'I' for Inactive)
REMARK    1  A    between atoms: N_1  and  C_2 
REMARK    2  A    between atoms: N_10  and  C1*_11 
REMARK    3  A    between atoms: C4*_13  and  C5*_14 
REMARK    4  A    between atoms: C5*_14  and  O5*_15 
REMARK    5  A    between atoms: C3*_16  and  O3*_19 
REMARK    6  A    between atoms: C2*_17  and  O2*_18 
ROOT
HETATM    1  C   LIG     1      23.282  19.625  17.685  1.00  0.00     0.136 A 
HETATM    2  N   LIG     1      24.170  19.158  16.758  1.00  0.00    -0.224 NA
HETATM    3  C   LIG     1      25.409  19.724  16.604  1.00  0.00     0.237 A 
HETATM    4  N   LIG     1      25.789  20.780  17.382  1.00  0.00    -0.223 NA
HETATM    5  C   LIG     1      24.911  21.254  18.301  1.00  0.00     0.147 A 
HETATM    6  C   LIG     1      23.677  20.704  18.473  1.00  0.00     0.057 A 
HETATM    7  C   LIG     1      23.058  21.395  19.497  1.00  0.00     0.036 A 
HETATM    8  C   LIG     1      23.985  22.354  19.902  1.00  0.00     0.096 A 
HETATM    9  N   LIG     1      25.115  22.271  19.159  1.00  0.00    -0.311 N 
ENDROOT
BRANCH   9  10
HETATM   10  C1* LIG     1      26.335  23.064  19.336  1.00  0.00     0.261 C 
HETATM   11  C2* LIG     1      26.169  24.457  18.713  1.00  0.00     0.198 C 
HETATM   12  C3* LIG     1      26.563  25.417  19.823  1.00  0.00     0.182 C 
HETATM   13  C4* LIG     1      27.081  24.505  20.942  1.00  0.00     0.179 C 
HETATM   14  O4* LIG     1      26.623  23.191  20.711  1.00  0.00    -0.353 OA
BRANCH  11  15
HETATM   15  O2* LIG     1      26.946  24.606  17.547  1.00  0.00    -0.388 OA
HETATM   16  H2* LIG     1      26.409  24.297  16.773  1.00  0.00     0.210 HD
ENDBRANCH  11  15
BRANCH  12  17
HETATM   17  O3* LIG     1      27.519  26.364  19.413  1.00  0.00    -0.390 OA
HETATM   18  H3* LIG     1      27.282  26.620  18.484  1.00  0.00     0.210 HD
ENDBRANCH  12  17
BRANCH  13  19
HETATM   19  C5* LIG     1      28.608  24.500  21.130  1.00  0.00     0.198 C 
BRANCH  19  20
HETATM   20  O5* LIG     1      29.262  24.344  19.901  1.00  0.00    -0.398 OA
HETATM   21  H5* LIG     1      29.311  25.250  19.500  1.00  0.00     0.209 HD
ENDBRANCH  19  20
ENDBRANCH  13  19
ENDBRANCH   9  10
BRANCH   1  22
HETATM   22  N   LIG     1      22.000  19.013  17.829  1.00  0.00    -0.383 N 
HETATM   23  H   LIG     1      21.341  19.347  18.566  1.00  0.00     0.157 HD
HETATM   24  H   LIG     1      21.700  18.230  17.206  1.00  0.00     0.157 HD
ENDBRANCH   1  22
TORSDOF 6
ENDMDL
MODEL 19
REMARK VINA RESULT:      -3.9     15.827     16.564
REMARK  6 active torsions:
REMARK  status: ('A' for Active; 'I' for Inactive)
REMARK    1  A    between atoms: N_1  and  C_2 
REMARK    2  A    between atoms: N_10  and  C1*_11 
REMARK    3  A    between atoms: C4*_13  and  C5*_14 
REMARK    4  A    between atoms: C5*_14  and  O5*_15 
REMARK    5  A    between atoms: C3*_16  and  O3*_19 
REMARK    6  A    between atoms: C2*_17  and  O2*_18 
ROOT
HETATM    1  C   LIG     1      26.427  24.323  26.236  1.00  0.00     0.136 A 
HETATM    2  N   LIG     1      27.451  24.957  25.593  1.00  0.00    -0.224 NA
HETATM    3  C   LIG     1      27.725  24.715  24.271  1.00  0.00     0.237 A 
HETATM    4  N   LIG     1      26.972  23.825  23.560  1.00  0.00    -0.223 NA
HETATM    5  C   LIG     1      25.957  23.187  24.193  1.00  0.00     0.147 A 
HETATM    6  C   LIG     1      25.665  23.415  25.504  1.00  0.00     0.057 A 
HETATM    7  C   LIG     1      24.569  22.636  25.823  1.00  0.00     0.036 A 
HETATM    8  C   LIG     1      24.246  21.962  24.646  1.00  0.00     0.096 A 
HETATM    9  N   LIG     1      25.107  22.294  23.653  1.00  0.00    -0.311 N 
ENDROOT
BRANCH   9  10
HETATM   10  C1* LIG     1      25.045  21.842  22.260  1.00  0.00     0.261 C 
HETATM   11  C2* LIG     1      24.342  20.482  22.163  1.00  0.00     0.198 C 
HETATM   12  C3* LIG     1      23.265  20.688  21.111  1.00  0.00     0.182 C 
HETATM   13  C4* LIG     1      23.535  22.096  20.567  1.00  0.00     0.179 C 
HETATM   14  O4* LIG     1      24.350  22.792  21.483  1.00  0.00    -0.353 OA
BRANCH  11  15
HETATM   15  O2* LIG     1      25.243  19.447  21.841  1.00  0.00    -0.388 OA
HETATM   16  H2* LIG     1      26.137  19.848  21.692  1.00  0.00     0.210 HD
ENDBRANCH  11  15
BRANCH  12  17
HETATM   17  O3* LIG     1      23.289  19.706  20.103  1.00  0.00    -0.390 OA
HETATM   18  H3* LIG     1      22.384  19.699  19.696  1.00  0.00     0.210 HD
ENDBRANCH  12  17
BRANCH  13  19
HETATM   19  C5* LIG     1      24.167  22.146  19.164  1.00  0.00     0.198 C 
BRANCH  19  20
HETATM   20  O5* LIG     1      23.180  22.117  18.171  1.00  0.00    -0.398 OA
HETATM   21  H5* LIG     1      22.336  22.392  18.614  1.00  0.00     0.209 HD
ENDBRANCH  19  20
ENDBRANCH  13  19
ENDBRANCH   9  10
BRANCH   1  22
HETATM   22  N   LIG     1      26.159  24.597  27.612  1.00  0.00    -0.383 N 
HETATM   23  H   LIG     1      25.376  24.108  28.100  1.00  0.00     0.157 HD
HETATM   24  H   LIG     1      26.734  25.283  28.150  1.00  0.00     0.157 HD
ENDBRANCH   1  22
TORSDOF 6
ENDMDL
