REMARK  6 active torsions:
REMARK  status: ('A' for Active; 'I' for Inactive)
REMARK    1  A    between atoms: N_1  and  C_2 
REMARK    2  A    between atoms: N_10  and  C1*_11 
REMARK    3  A    between atoms: C4*_13  and  C5*_14 
REMARK    4  A    between atoms: C5*_14  and  O5*_15 
REMARK    5  A    between atoms: C3*_16  and  O3*_19 
REMARK    6  A    between atoms: C2*_17  and  O2*_18 
ROOT
HETATM    1  C   LIG     1      -3.978  -0.110  -0.006  1.00  0.00     0.136 A 
HETATM    2  N   LIG     1      -3.841  -1.418   0.361  1.00  0.00    -0.224 NA
HETATM    3  C   LIG     1      -2.608  -2.011   0.451  1.00  0.00     0.237 A 
HETATM    4  N   LIG     1      -1.476  -1.300   0.173  1.00  0.00    -0.223 NA
HETATM    5  C   LIG     1      -1.604  -0.002  -0.198  1.00  0.00     0.147 A 
HETATM    6  C   LIG     1      -2.819   0.608  -0.290  1.00  0.00     0.057 A 
HETATM    7  C   LIG     1      -2.593   1.921  -0.657  1.00  0.00     0.036 A 
HETATM    8  C   LIG     1      -1.208   2.036  -0.766  1.00  0.00     0.096 A 
HETATM    9  N   LIG     1      -0.607   0.852  -0.495  1.00  0.00    -0.311 N 
ENDROOT
BRANCH   9  10
HETATM   10  C1* LIG     1       0.836   0.600  -0.441  1.00  0.00     0.261 C 
HETATM   11  C2* LIG     1       1.327   0.576   1.013  1.00  0.00     0.198 C 
HETATM   12  C3* LIG     1       2.091  -0.732   1.132  1.00  0.00     0.182 C 
HETATM   13  C4* LIG     1       2.122  -1.281  -0.300  1.00  0.00     0.179 C 
HETATM   14  O4* LIG     1       1.126  -0.634  -1.060  1.00  0.00    -0.353 OA
BRANCH  11  15
HETATM   15  O2* LIG     1       2.109   1.707   1.321  1.00  0.00    -0.388 OA
HETATM   16  H2* LIG     1       2.875   1.737   0.692  1.00  0.00     0.210 HD
ENDBRANCH  11  15
BRANCH  12  17
HETATM   17  O3* LIG     1       3.379  -0.566   1.674  1.00  0.00    -0.390 OA
HETATM   18  H3* LIG     1       3.257  -0.414   2.647  1.00  0.00     0.210 HD
ENDBRANCH  12  17
BRANCH  13  19
HETATM   19  C5* LIG     1       3.480  -1.169  -1.016  1.00  0.00     0.198 C 
BRANCH  19  20
HETATM   20  O5* LIG     1       3.866   0.171  -1.147  1.00  0.00    -0.398 OA
HETATM   21  H5* LIG     1       4.745   0.160  -1.606  1.00  0.00     0.209 HD
ENDBRANCH  19  20
ENDBRANCH  13  19
ENDBRANCH   9  10
BRANCH   1  22
HETATM   22  N   LIG     1      -5.274   0.485  -0.086  1.00  0.00    -0.383 N 
HETATM   23  H   LIG     1      -6.123  -0.080   0.137  1.00  0.00     0.157 HD
HETATM   24  H   LIG     1      -5.396   1.484  -0.365  1.00  0.00     0.157 HD
ENDBRANCH   1  22
TORSDOF 6
