MODEL 1
REMARK VINA RESULT:      -6.9      0.000      0.000
REMARK  3 active torsions:
REMARK  status: ('A' for Active; 'I' for Inactive)
REMARK    1  A    between atoms: O_1  and  C_2 
REMARK    2  A    between atoms: C_7  and  C_8 
REMARK    3  A    between atoms: C_8  and  O_9 
ROOT
HETATM    1  C   LIG     1      17.467  37.536  25.492  1.00  0.00     0.082 A 
HETATM    2  C   LIG     1      18.114  36.884  26.554  1.00  0.00     0.037 A 
HETATM    3  C   LIG     1      18.302  35.502  26.524  1.00  0.00     0.003 A 
HETATM    4  C   LIG     1      17.851  34.759  25.433  1.00  0.00     0.001 A 
HETATM    5  C   LIG     1      17.201  35.395  24.372  1.00  0.00     0.021 A 
HETATM    6  C   LIG     1      16.986  36.785  24.398  1.00  0.00     0.070 A 
ENDROOT
BRANCH   6   7
HETATM    7  C   LIG     1      16.283  37.429  23.265  1.00  0.00     0.178 C 
HETATM    8  O   LIG     1      16.728  37.290  22.094  1.00  0.00    -0.646 OA
BRANCH   7   9
HETATM    9  O   LIG     1      15.113  38.162  23.454  1.00  0.00    -0.773 OA
HETATM   10  H   LIG     1      15.061  39.152  23.249  1.00  0.00     0.167 HD
ENDBRANCH   7   9
ENDBRANCH   6   7
BRANCH   1  11
HETATM   11  O   LIG     1      17.334  38.924  25.516  1.00  0.00    -0.360 OA
HETATM   12  H   LIG     1      16.647  39.402  24.945  1.00  0.00     0.217 HD
ENDBRANCH   1  11
TORSDOF 3
ENDMDL
MODEL 2
REMARK VINA RESULT:      -6.4      1.083      2.203
REMARK  3 active torsions:
REMARK  status: ('A' for Active; 'I' for Inactive)
REMARK    1  A    between atoms: O_1  and  C_2 
REMARK    2  A    between atoms: C_7  and  C_8 
REMARK    3  A    between atoms: C_8  and  O_9 
ROOT
HETATM    1  C   LIG     1      17.139  35.697  24.204  1.00  0.00     0.082 A 
HETATM    2  C   LIG     1      17.670  34.798  25.142  1.00  0.00     0.037 A 
HETATM    3  C   LIG     1      18.212  35.264  26.340  1.00  0.00     0.003 A 
HETATM    4  C   LIG     1      18.223  36.632  26.615  1.00  0.00     0.001 A 
HETATM    5  C   LIG     1      17.702  37.538  25.688  1.00  0.00     0.021 A 
HETATM    6  C   LIG     1      17.172  37.084  24.467  1.00  0.00     0.070 A 
ENDROOT
BRANCH   6   7
HETATM    7  C   LIG     1      16.638  38.069  23.499  1.00  0.00     0.178 C 
HETATM    8  O   LIG     1      17.422  38.880  22.937  1.00  0.00    -0.646 OA
BRANCH   7   9
HETATM    9  O   LIG     1      15.286  38.102  23.164  1.00  0.00    -0.773 OA
HETATM   10  H   LIG     1      14.970  38.332  22.229  1.00  0.00     0.167 HD
ENDBRANCH   7   9
ENDBRANCH   6   7
BRANCH   1  11
HETATM   11  O   LIG     1      16.556  35.208  23.036  1.00  0.00    -0.360 OA
HETATM   12  H   LIG     1      16.023  34.348  23.026  1.00  0.00     0.217 HD
ENDBRANCH   1  11
TORSDOF 3
ENDMDL
MODEL 3
REMARK VINA RESULT:      -6.3      2.930      4.716
REMARK  3 active torsions:
REMARK  status: ('A' for Active; 'I' for Inactive)
REMARK    1  A    between atoms: O_1  and  C_2 
REMARK    2  A    between atoms: C_7  and  C_8 
REMARK    3  A    between atoms: C_8  and  O_9 
ROOT
HETATM    1  C   LIG     1      17.547  36.937  21.215  1.00  0.00     0.082 A 
HETATM    2  C   LIG     1      18.416  36.839  20.118  1.00  0.00     0.037 A 
HETATM    3  C   LIG     1      19.218  37.921  19.752  1.00  0.00     0.003 A 
HETATM    4  C   LIG     1      19.164  39.109  20.483  1.00  0.00     0.001 A 
HETATM    5  C   LIG     1      18.299  39.221  21.575  1.00  0.00     0.021 A 
HETATM    6  C   LIG     1      17.470  38.146  21.942  1.00  0.00     0.070 A 
ENDROOT
BRANCH   6   7
HETATM    7  C   LIG     1      16.556  38.299  23.096  1.00  0.00     0.178 C 
HETATM    8  O   LIG     1      17.017  38.645  24.217  1.00  0.00    -0.646 OA
BRANCH   7   9
HETATM    9  O   LIG     1      15.182  38.104  22.969  1.00  0.00    -0.773 OA
HETATM   10  H   LIG     1      14.511  38.806  23.258  1.00  0.00     0.167 HD
ENDBRANCH   7   9
ENDBRANCH   6   7
BRANCH   1  11
HETATM   11  O   LIG     1      16.791  35.829  21.596  1.00  0.00    -0.360 OA
HETATM   12  H   LIG     1      17.022  34.894  21.284  1.00  0.00     0.217 HD
ENDBRANCH   1  11
TORSDOF 3
ENDMDL
MODEL 4
REMARK VINA RESULT:      -6.1      4.266      5.674
REMARK  3 active torsions:
REMARK  status: ('A' for Active; 'I' for Inactive)
REMARK    1  A    between atoms: O_1  and  C_2 
REMARK    2  A    between atoms: C_7  and  C_8 
REMARK    3  A    between atoms: C_8  and  O_9 
ROOT
HETATM    1  C   LIG     1      18.225  37.242  20.097  1.00  0.00     0.082 A 
HETATM    2  C   LIG     1      17.519  36.758  21.209  1.00  0.00     0.037 A 
HETATM    3  C   LIG     1      17.340  37.561  22.337  1.00  0.00     0.003 A 
HETATM    4  C   LIG     1      17.860  38.855  22.361  1.00  0.00     0.001 A 
HETATM    5  C   LIG     1      18.569  39.347  21.263  1.00  0.00     0.021 A 
HETATM    6  C   LIG     1      18.775  38.542  20.128  1.00  0.00     0.070 A 
ENDROOT
BRANCH   6   7
HETATM    7  C   LIG     1      19.541  39.087  18.984  1.00  0.00     0.178 C 
HETATM    8  O   LIG     1      18.951  39.340  17.900  1.00  0.00    -0.646 OA
BRANCH   7   9
HETATM    9  O   LIG     1      20.904  39.363  19.085  1.00  0.00    -0.773 OA
HETATM   10  H   LIG     1      21.592  38.631  19.214  1.00  0.00     0.167 HD
ENDBRANCH   7   9
ENDBRANCH   6   7
BRANCH   1  11
HETATM   11  O   LIG     1      18.350  36.444  18.960  1.00  0.00    -0.360 OA
HETATM   12  H   LIG     1      18.717  35.501  19.009  1.00  0.00     0.217 HD
ENDBRANCH   1  11
TORSDOF 3
ENDMDL
MODEL 5
REMARK VINA RESULT:      -6.1      2.971      4.286
REMARK  3 active torsions:
REMARK  status: ('A' for Active; 'I' for Inactive)
REMARK    1  A    between atoms: O_1  and  C_2 
REMARK    2  A    between atoms: C_7  and  C_8 
REMARK    3  A    between atoms: C_8  and  O_9 
ROOT
HETATM    1  C   LIG     1      18.400  38.786  21.371  1.00  0.00     0.082 A 
HETATM    2  C   LIG     1      19.169  38.371  20.273  1.00  0.00     0.037 A 
HETATM    3  C   LIG     1      18.956  37.119  19.693  1.00  0.00     0.003 A 
HETATM    4  C   LIG     1      17.969  36.274  20.202  1.00  0.00     0.001 A 
HETATM    5  C   LIG     1      17.200  36.673  21.298  1.00  0.00     0.021 A 
HETATM    6  C   LIG     1      17.418  37.923  21.905  1.00  0.00     0.070 A 
ENDROOT
BRANCH   6   7
HETATM    7  C   LIG     1      16.596  38.313  23.073  1.00  0.00     0.178 C 
HETATM    8  O   LIG     1      17.157  38.723  24.124  1.00  0.00    -0.646 OA
BRANCH   7   9
HETATM    9  O   LIG     1      15.203  38.273  23.030  1.00  0.00    -0.773 OA
HETATM   10  H   LIG     1      14.636  38.411  23.857  1.00  0.00     0.167 HD
ENDBRANCH   7   9
ENDBRANCH   6   7
BRANCH   1  11
HETATM   11  O   LIG     1      18.593  40.060  21.905  1.00  0.00    -0.360 OA
HETATM   12  H   LIG     1      19.239  40.719  21.488  1.00  0.00     0.217 HD
ENDBRANCH   1  11
TORSDOF 3
ENDMDL
MODEL 6
REMARK VINA RESULT:      -6.0      9.043     10.512
REMARK  3 active torsions:
REMARK  status: ('A' for Active; 'I' for Inactive)
REMARK    1  A    between atoms: O_1  and  C_2 
REMARK    2  A    between atoms: C_7  and  C_8 
REMARK    3  A    between atoms: C_8  and  O_9 
ROOT
HETATM    1  C   LIG     1      13.814  31.623  16.489  1.00  0.00     0.082 A 
HETATM    2  C   LIG     1      13.472  30.502  15.718  1.00  0.00     0.037 A 
HETATM    3  C   LIG     1      14.273  30.110  14.645  1.00  0.00     0.003 A 
HETATM    4  C   LIG     1      15.426  30.832  14.335  1.00  0.00     0.001 A 
HETATM    5  C   LIG     1      15.775  31.954  15.091  1.00  0.00     0.021 A 
HETATM    6  C   LIG     1      14.966  32.372  16.162  1.00  0.00     0.070 A 
ENDROOT
BRANCH   6   7
HETATM    7  C   LIG     1      15.356  33.572  16.937  1.00  0.00     0.178 C 
HETATM    8  O   LIG     1      15.804  34.585  16.337  1.00  0.00    -0.646 OA
BRANCH   7   9
HETATM    9  O   LIG     1      15.206  33.626  18.322  1.00  0.00    -0.773 OA
HETATM   10  H   LIG     1      15.308  32.804  18.905  1.00  0.00     0.167 HD
ENDBRANCH   7   9
ENDBRANCH   6   7
BRANCH   1  11
HETATM   11  O   LIG     1      13.029  31.969  17.588  1.00  0.00    -0.360 OA
HETATM   12  H   LIG     1      12.404  32.765  17.567  1.00  0.00     0.217 HD
ENDBRANCH   1  11
TORSDOF 3
ENDMDL
MODEL 7
REMARK VINA RESULT:      -5.8      9.289     10.433
REMARK  3 active torsions:
REMARK  status: ('A' for Active; 'I' for Inactive)
REMARK    1  A    between atoms: O_1  and  C_2 
REMARK    2  A    between atoms: C_7  and  C_8 
REMARK    3  A    between atoms: C_8  and  O_9 
ROOT
HETATM    1  C   LIG     1      14.521  32.525  16.756  1.00  0.00     0.082 A 
HETATM    2  C   LIG     1      13.378  31.722  16.884  1.00  0.00     0.037 A 
HETATM    3  C   LIG     1      13.159  30.659  16.007  1.00  0.00     0.003 A 
HETATM    4  C   LIG     1      14.082  30.386  14.997  1.00  0.00     0.001 A 
HETATM    5  C   LIG     1      15.222  31.181  14.856  1.00  0.00     0.021 A 
HETATM    6  C   LIG     1      15.445  32.269  15.720  1.00  0.00     0.070 A 
ENDROOT
BRANCH   6   7
HETATM    7  C   LIG     1      16.656  33.100  15.537  1.00  0.00     0.178 C 
HETATM    8  O   LIG     1      17.748  32.554  15.225  1.00  0.00    -0.646 OA
BRANCH   7   9
HETATM    9  O   LIG     1      16.614  34.487  15.668  1.00  0.00    -0.773 OA
HETATM   10  H   LIG     1      16.542  34.940  16.571  1.00  0.00     0.167 HD
ENDBRANCH   7   9
ENDBRANCH   6   7
BRANCH   1  11
HETATM   11  O   LIG     1      14.748  33.551  17.673  1.00  0.00    -0.360 OA
HETATM   12  H   LIG     1      15.685  33.831  17.938  1.00  0.00     0.217 HD
ENDBRANCH   1  11
TORSDOF 3
ENDMDL
MODEL 8
REMARK VINA RESULT:      -5.7      8.933     10.482
REMARK  3 active torsions:
REMARK  status: ('A' for Active; 'I' for Inactive)
REMARK    1  A    between atoms: O_1  and  C_2 
REMARK    2  A    between atoms: C_7  and  C_8 
REMARK    3  A    between atoms: C_8  and  O_9 
ROOT
HETATM    1  C   LIG     1      15.445  31.881  15.312  1.00  0.00     0.082 A 
HETATM    2  C   LIG     1      14.934  30.748  14.660  1.00  0.00     0.037 A 
HETATM    3  C   LIG     1      13.733  30.174  15.080  1.00  0.00     0.003 A 
HETATM    4  C   LIG     1      13.030  30.728  16.150  1.00  0.00     0.001 A 
HETATM    5  C   LIG     1      13.532  31.852  16.811  1.00  0.00     0.021 A 
HETATM    6  C   LIG     1      14.751  32.430  16.412  1.00  0.00     0.070 A 
ENDROOT
BRANCH   6   7
HETATM    7  C   LIG     1      15.263  33.613  17.140  1.00  0.00     0.178 C 
HETATM    8  O   LIG     1      15.715  34.596  16.494  1.00  0.00    -0.646 OA
BRANCH   7   9
HETATM    9  O   LIG     1      15.226  33.685  18.531  1.00  0.00    -0.773 OA
HETATM   10  H   LIG     1      15.875  34.258  19.057  1.00  0.00     0.167 HD
ENDBRANCH   7   9
ENDBRANCH   6   7
BRANCH   1  11
HETATM   11  O   LIG     1      16.620  32.471  14.846  1.00  0.00    -0.360 OA
HETATM   12  H   LIG     1      16.771  32.652  13.862  1.00  0.00     0.217 HD
ENDBRANCH   1  11
TORSDOF 3
ENDMDL
MODEL 9
REMARK VINA RESULT:      -5.7      9.599     11.082
REMARK  3 active torsions:
REMARK  status: ('A' for Active; 'I' for Inactive)
REMARK    1  A    between atoms: O_1  and  C_2 
REMARK    2  A    between atoms: C_7  and  C_8 
REMARK    3  A    between atoms: C_8  and  O_9 
ROOT
HETATM    1  C   LIG     1      15.267  31.228  14.739  1.00  0.00     0.082 A 
HETATM    2  C   LIG     1      14.151  30.398  14.931  1.00  0.00     0.037 A 
HETATM    3  C   LIG     1      13.274  30.627  15.992  1.00  0.00     0.003 A 
HETATM    4  C   LIG     1      13.500  31.689  16.868  1.00  0.00     0.001 A 
HETATM    5  C   LIG     1      14.610  32.519  16.692  1.00  0.00     0.021 A 
HETATM    6  C   LIG     1      15.514  32.288  15.639  1.00  0.00     0.070 A 
ENDROOT
BRANCH   6   7
HETATM    7  C   LIG     1      16.688  33.177  15.485  1.00  0.00     0.178 C 
HETATM    8  O   LIG     1      16.563  34.415  15.684  1.00  0.00    -0.646 OA
BRANCH   7   9
HETATM    9  O   LIG     1      17.946  32.674  15.159  1.00  0.00    -0.773 OA
HETATM   10  H   LIG     1      18.322  31.842  15.599  1.00  0.00     0.167 HD
ENDBRANCH   7   9
ENDBRANCH   6   7
BRANCH   1  11
HETATM   11  O   LIG     1      16.104  31.015  13.644  1.00  0.00    -0.360 OA
HETATM   12  H   LIG     1      17.058  31.352  13.630  1.00  0.00     0.217 HD
ENDBRANCH   1  11
TORSDOF 3
ENDMDL
MODEL 10
REMARK VINA RESULT:      -5.7      3.761      4.775
REMARK  3 active torsions:
REMARK  status: ('A' for Active; 'I' for Inactive)
REMARK    1  A    between atoms: O_1  and  C_2 
REMARK    2  A    between atoms: C_7  and  C_8 
REMARK    3  A    between atoms: C_8  and  O_9 
ROOT
HETATM    1  C   LIG     1      17.892  36.730  20.522  1.00  0.00     0.082 A 
HETATM    2  C   LIG     1      16.932  35.726  20.720  1.00  0.00     0.037 A 
HETATM    3  C   LIG     1      15.934  35.881  21.683  1.00  0.00     0.003 A 
HETATM    4  C   LIG     1      15.883  37.042  22.454  1.00  0.00     0.001 A 
HETATM    5  C   LIG     1      16.837  38.047  22.272  1.00  0.00     0.021 A 
HETATM    6  C   LIG     1      17.860  37.896  21.319  1.00  0.00     0.070 A 
ENDROOT
BRANCH   6   7
HETATM    7  C   LIG     1      18.863  38.973  21.156  1.00  0.00     0.178 C 
HETATM    8  O   LIG     1      18.960  39.575  20.054  1.00  0.00    -0.646 OA
BRANCH   7   9
HETATM    9  O   LIG     1      19.686  39.367  22.210  1.00  0.00    -0.773 OA
HETATM   10  H   LIG     1      19.581  38.988  23.143  1.00  0.00     0.167 HD
ENDBRANCH   7   9
ENDBRANCH   6   7
BRANCH   1  11
HETATM   11  O   LIG     1      18.850  36.579  19.521  1.00  0.00    -0.360 OA
HETATM   12  H   LIG     1      19.834  36.740  19.697  1.00  0.00     0.217 HD
ENDBRANCH   1  11
TORSDOF 3
ENDMDL
MODEL 11
REMARK VINA RESULT:      -5.6      9.706     11.044
REMARK  3 active torsions:
REMARK  status: ('A' for Active; 'I' for Inactive)
REMARK    1  A    between atoms: O_1  and  C_2 
REMARK    2  A    between atoms: C_7  and  C_8 
REMARK    3  A    between atoms: C_8  and  O_9 
ROOT
HETATM    1  C   LIG     1      15.401  32.382  15.518  1.00  0.00     0.082 A 
HETATM    2  C   LIG     1      16.080  32.126  14.317  1.00  0.00     0.037 A 
HETATM    3  C   LIG     1      15.755  31.009  13.545  1.00  0.00     0.003 A 
HETATM    4  C   LIG     1      14.746  30.142  13.964  1.00  0.00     0.001 A 
HETATM    5  C   LIG     1      14.066  30.383  15.160  1.00  0.00     0.021 A 
HETATM    6  C   LIG     1      14.397  31.493  15.958  1.00  0.00     0.070 A 
ENDROOT
BRANCH   6   7
HETATM    7  C   LIG     1      13.666  31.715  17.227  1.00  0.00     0.178 C 
HETATM    8  O   LIG     1      14.271  31.593  18.326  1.00  0.00    -0.646 OA
BRANCH   7   9
HETATM    9  O   LIG     1      12.325  32.093  17.239  1.00  0.00    -0.773 OA
HETATM   10  H   LIG     1      11.603  31.498  17.627  1.00  0.00     0.167 HD
ENDBRANCH   7   9
ENDBRANCH   6   7
BRANCH   1  11
HETATM   11  O   LIG     1      15.705  33.530  16.249  1.00  0.00    -0.360 OA
HETATM   12  H   LIG     1      15.280  34.424  16.037  1.00  0.00     0.217 HD
ENDBRANCH   1  11
TORSDOF 3
ENDMDL
MODEL 12
REMARK VINA RESULT:      -5.6     10.556     11.962
REMARK  3 active torsions:
REMARK  status: ('A' for Active; 'I' for Inactive)
REMARK    1  A    between atoms: O_1  and  C_2 
REMARK    2  A    between atoms: C_7  and  C_8 
REMARK    3  A    between atoms: C_8  and  O_9 
ROOT
HETATM    1  C   LIG     1      15.300  31.308  14.907  1.00  0.00     0.082 A 
HETATM    2  C   LIG     1      15.513  32.426  15.728  1.00  0.00     0.037 A 
HETATM    3  C   LIG     1      14.631  32.717  16.770  1.00  0.00     0.003 A 
HETATM    4  C   LIG     1      13.532  31.890  17.004  1.00  0.00     0.001 A 
HETATM    5  C   LIG     1      13.306  30.777  16.191  1.00  0.00     0.021 A 
HETATM    6  C   LIG     1      14.175  30.483  15.125  1.00  0.00     0.070 A 
ENDROOT
BRANCH   6   7
HETATM    7  C   LIG     1      13.902  29.303  14.273  1.00  0.00     0.178 C 
HETATM    8  O   LIG     1      14.860  28.599  13.856  1.00  0.00    -0.646 OA
BRANCH   7   9
HETATM    9  O   LIG     1      12.601  28.926  13.947  1.00  0.00    -0.773 OA
HETATM   10  H   LIG     1      12.163  29.203  13.076  1.00  0.00     0.167 HD
ENDBRANCH   7   9
ENDBRANCH   6   7
BRANCH   1  11
HETATM   11  O   LIG     1      16.220  31.005  13.904  1.00  0.00    -0.360 OA
HETATM   12  H   LIG     1      15.925  30.772  12.964  1.00  0.00     0.217 HD
ENDBRANCH   1  11
TORSDOF 3
ENDMDL
MODEL 13
REMARK VINA RESULT:      -5.5      9.827     11.184
REMARK  3 active torsions:
REMARK  status: ('A' for Active; 'I' for Inactive)
REMARK    1  A    between atoms: O_1  and  C_2 
REMARK    2  A    between atoms: C_7  and  C_8 
REMARK    3  A    between atoms: C_8  and  O_9 
ROOT
HETATM    1  C   LIG     1      15.668  32.344  15.893  1.00  0.00     0.082 A 
HETATM    2  C   LIG     1      15.013  32.587  17.110  1.00  0.00     0.037 A 
HETATM    3  C   LIG     1      13.857  31.881  17.444  1.00  0.00     0.003 A 
HETATM    4  C   LIG     1      13.347  30.922  16.568  1.00  0.00     0.001 A 
HETATM    5  C   LIG     1      13.986  30.674  15.350  1.00  0.00     0.021 A 
HETATM    6  C   LIG     1      15.141  31.393  14.991  1.00  0.00     0.070 A 
ENDROOT
BRANCH   6   7
HETATM    7  C   LIG     1      15.789  31.116  13.689  1.00  0.00     0.178 C 
HETATM    8  O   LIG     1      15.707  29.965  13.183  1.00  0.00    -0.646 OA
BRANCH   7   9
HETATM    9  O   LIG     1      16.464  32.112  12.985  1.00  0.00    -0.773 OA
HETATM   10  H   LIG     1      17.390  31.964  12.602  1.00  0.00     0.167 HD
ENDBRANCH   7   9
ENDBRANCH   6   7
BRANCH   1  11
HETATM   11  O   LIG     1      16.850  33.023  15.599  1.00  0.00    -0.360 OA
HETATM   12  H   LIG     1      17.755  32.576  15.681  1.00  0.00     0.217 HD
ENDBRANCH   1  11
TORSDOF 3
ENDMDL
MODEL 14
REMARK VINA RESULT:      -5.3     10.100     11.404
REMARK  3 active torsions:
REMARK  status: ('A' for Active; 'I' for Inactive)
REMARK    1  A    between atoms: O_1  and  C_2 
REMARK    2  A    between atoms: C_7  and  C_8 
REMARK    3  A    between atoms: C_8  and  O_9 
ROOT
HETATM    1  C   LIG     1      14.166  30.783  15.465  1.00  0.00     0.082 A 
HETATM    2  C   LIG     1      13.623  30.870  16.756  1.00  0.00     0.037 A 
HETATM    3  C   LIG     1      14.085  31.834  17.654  1.00  0.00     0.003 A 
HETATM    4  C   LIG     1      15.090  32.722  17.268  1.00  0.00     0.001 A 
HETATM    5  C   LIG     1      15.643  32.642  15.988  1.00  0.00     0.021 A 
HETATM    6  C   LIG     1      15.201  31.663  15.079  1.00  0.00     0.070 A 
ENDROOT
BRANCH   6   7
HETATM    7  C   LIG     1      15.815  31.595  13.734  1.00  0.00     0.178 C 
HETATM    8  O   LIG     1      15.967  30.478  13.172  1.00  0.00    -0.646 OA
BRANCH   7   9
HETATM    9  O   LIG     1      16.201  32.747  13.051  1.00  0.00    -0.773 OA
HETATM   10  H   LIG     1      15.821  32.985  12.142  1.00  0.00     0.167 HD
ENDBRANCH   7   9
ENDBRANCH   6   7
BRANCH   1  11
HETATM   11  O   LIG     1      13.656  29.848  14.565  1.00  0.00    -0.360 OA
HETATM   12  H   LIG     1      13.766  29.957  13.565  1.00  0.00     0.217 HD
ENDBRANCH   1  11
TORSDOF 3
ENDMDL
MODEL 15
REMARK VINA RESULT:      -5.2      9.966     11.523
REMARK  3 active torsions:
REMARK  status: ('A' for Active; 'I' for Inactive)
REMARK    1  A    between atoms: O_1  and  C_2 
REMARK    2  A    between atoms: C_7  and  C_8 
REMARK    3  A    between atoms: C_8  and  O_9 
ROOT
HETATM    1  C   LIG     1      14.417  30.604  14.795  1.00  0.00     0.082 A 
HETATM    2  C   LIG     1      15.313  30.749  13.725  1.00  0.00     0.037 A 
HETATM    3  C   LIG     1      16.285  31.751  13.748  1.00  0.00     0.003 A 
HETATM    4  C   LIG     1      16.374  32.613  14.841  1.00  0.00     0.001 A 
HETATM    5  C   LIG     1      15.484  32.483  15.910  1.00  0.00     0.021 A 
HETATM    6  C   LIG     1      14.486  31.491  15.892  1.00  0.00     0.070 A 
ENDROOT
BRANCH   6   7
HETATM    7  C   LIG     1      13.550  31.386  17.034  1.00  0.00     0.178 C 
HETATM    8  O   LIG     1      12.410  30.877  16.863  1.00  0.00    -0.646 OA
BRANCH   7   9
HETATM    9  O   LIG     1      13.912  31.806  18.313  1.00  0.00    -0.773 OA
HETATM   10  H   LIG     1      14.877  31.974  18.571  1.00  0.00     0.167 HD
ENDBRANCH   7   9
ENDBRANCH   6   7
BRANCH   1  11
HETATM   11  O   LIG     1      13.487  29.566  14.778  1.00  0.00    -0.360 OA
HETATM   12  H   LIG     1      13.477  28.848  15.492  1.00  0.00     0.217 HD
ENDBRANCH   1  11
TORSDOF 3
ENDMDL
MODEL 16
REMARK VINA RESULT:      -5.1      2.096      3.708
REMARK  3 active torsions:
REMARK  status: ('A' for Active; 'I' for Inactive)
REMARK    1  A    between atoms: O_1  and  C_2 
REMARK    2  A    between atoms: C_7  and  C_8 
REMARK    3  A    between atoms: C_8  and  O_9 
ROOT
HETATM    1  C   LIG     1      17.547  37.481  21.643  1.00  0.00     0.082 A 
HETATM    2  C   LIG     1      17.286  36.593  20.588  1.00  0.00     0.037 A 
HETATM    3  C   LIG     1      16.794  35.313  20.847  1.00  0.00     0.003 A 
HETATM    4  C   LIG     1      16.553  34.911  22.161  1.00  0.00     0.001 A 
HETATM    5  C   LIG     1      16.815  35.784  23.221  1.00  0.00     0.021 A 
HETATM    6  C   LIG     1      17.330  37.069  22.976  1.00  0.00     0.070 A 
ENDROOT
BRANCH   6   7
HETATM    7  C   LIG     1      17.608  37.967  24.120  1.00  0.00     0.178 C 
HETATM    8  O   LIG     1      18.748  38.492  24.239  1.00  0.00    -0.646 OA
BRANCH   7   9
HETATM    9  O   LIG     1      16.626  38.278  25.058  1.00  0.00    -0.773 OA
HETATM   10  H   LIG     1      16.756  39.004  25.752  1.00  0.00     0.167 HD
ENDBRANCH   7   9
ENDBRANCH   6   7
BRANCH   1  11
HETATM   11  O   LIG     1      17.991  38.773  21.361  1.00  0.00    -0.360 OA
HETATM   12  H   LIG     1      18.707  39.223  21.918  1.00  0.00     0.217 HD
ENDBRANCH   1  11
TORSDOF 3
ENDMDL
MODEL 17
REMARK VINA RESULT:      -5.1      9.794     11.113
REMARK  3 active torsions:
REMARK  status: ('A' for Active; 'I' for Inactive)
REMARK    1  A    between atoms: O_1  and  C_2 
REMARK    2  A    between atoms: C_7  and  C_8 
REMARK    3  A    between atoms: C_8  and  O_9 
ROOT
HETATM    1  C   LIG     1      14.416  32.239  16.478  1.00  0.00     0.082 A 
HETATM    2  C   LIG     1      15.507  33.121  16.432  1.00  0.00     0.037 A 
HETATM    3  C   LIG     1      16.473  32.999  15.432  1.00  0.00     0.003 A 
HETATM    4  C   LIG     1      16.356  31.998  14.468  1.00  0.00     0.001 A 
HETATM    5  C   LIG     1      15.279  31.110  14.506  1.00  0.00     0.021 A 
HETATM    6  C   LIG     1      14.308  31.208  15.519  1.00  0.00     0.070 A 
ENDROOT
BRANCH   6   7
HETATM    7  C   LIG     1      13.184  30.245  15.540  1.00  0.00     0.178 C 
HETATM    8  O   LIG     1      12.996  29.483  14.554  1.00  0.00    -0.646 OA
BRANCH   7   9
HETATM    9  O   LIG     1      12.342  30.132  16.644  1.00  0.00    -0.773 OA
HETATM   10  H   LIG     1      11.398  30.499  16.640  1.00  0.00     0.167 HD
ENDBRANCH   7   9
ENDBRANCH   6   7
BRANCH   1  11
HETATM   11  O   LIG     1      13.434  32.409  17.453  1.00  0.00    -0.360 OA
HETATM   12  H   LIG     1      13.396  33.239  18.032  1.00  0.00     0.217 HD
ENDBRANCH   1  11
TORSDOF 3
ENDMDL
MODEL 18
REMARK VINA RESULT:      -4.6      6.446      8.060
REMARK  3 active torsions:
REMARK  status: ('A' for Active; 'I' for Inactive)
REMARK    1  A    between atoms: O_1  and  C_2 
REMARK    2  A    between atoms: C_7  and  C_8 
REMARK    3  A    between atoms: C_8  and  O_9 
ROOT
HETATM    1  C   LIG     1      14.643  32.079  18.944  1.00  0.00     0.082 A 
HETATM    2  C   LIG     1      14.371  31.573  17.664  1.00  0.00     0.037 A 
HETATM    3  C   LIG     1      14.616  32.349  16.530  1.00  0.00     0.003 A 
HETATM    4  C   LIG     1      15.139  33.636  16.665  1.00  0.00     0.001 A 
HETATM    5  C   LIG     1      15.408  34.154  17.935  1.00  0.00     0.021 A 
HETATM    6  C   LIG     1      15.147  33.390  19.087  1.00  0.00     0.070 A 
ENDROOT
BRANCH   6   7
HETATM    7  C   LIG     1      15.432  33.971  20.419  1.00  0.00     0.178 C 
HETATM    8  O   LIG     1      16.529  34.554  20.624  1.00  0.00    -0.646 OA
BRANCH   7   9
HETATM    9  O   LIG     1      14.496  33.921  21.451  1.00  0.00    -0.773 OA
HETATM   10  H   LIG     1      14.596  33.288  22.236  1.00  0.00     0.167 HD
ENDBRANCH   7   9
ENDBRANCH   6   7
BRANCH   1  11
HETATM   11  O   LIG     1      14.440  31.270  20.062  1.00  0.00    -0.360 OA
HETATM   12  H   LIG     1      13.620  31.369  20.648  1.00  0.00     0.217 HD
ENDBRANCH   1  11
TORSDOF 3
ENDMDL
MODEL 19
REMARK VINA RESULT:      -4.4      5.462      7.107
REMARK  3 active torsions:
REMARK  status: ('A' for Active; 'I' for Inactive)
REMARK    1  A    between atoms: O_1  and  C_2 
REMARK    2  A    between atoms: C_7  and  C_8 
REMARK    3  A    between atoms: C_8  and  O_9 
ROOT
HETATM    1  C   LIG     1      15.338  33.728  18.300  1.00  0.00     0.082 A 
HETATM    2  C   LIG     1      14.910  32.499  17.777  1.00  0.00     0.037 A 
HETATM    3  C   LIG     1      14.589  31.441  18.629  1.00  0.00     0.003 A 
HETATM    4  C   LIG     1      14.687  31.605  20.011  1.00  0.00     0.001 A 
HETATM    5  C   LIG     1      15.117  32.822  20.545  1.00  0.00     0.021 A 
HETATM    6  C   LIG     1      15.464  33.890  19.697  1.00  0.00     0.070 A 
ENDROOT
BRANCH   6   7
HETATM    7  C   LIG     1      15.927  35.164  20.292  1.00  0.00     0.178 C 
HETATM    8  O   LIG     1      15.232  35.729  21.178  1.00  0.00    -0.646 OA
BRANCH   7   9
HETATM    9  O   LIG     1      17.139  35.743  19.920  1.00  0.00    -0.773 OA
HETATM   10  H   LIG     1      17.438  35.791  18.953  1.00  0.00     0.167 HD
ENDBRANCH   7   9
ENDBRANCH   6   7
BRANCH   1  11
HETATM   11  O   LIG     1      15.605  34.789  17.435  1.00  0.00    -0.360 OA
HETATM   12  H   LIG     1      15.087  35.658  17.481  1.00  0.00     0.217 HD
ENDBRANCH   1  11
TORSDOF 3
ENDMDL
MODEL 20
REMARK VINA RESULT:      -4.3      7.215      8.621
REMARK  3 active torsions:
REMARK  status: ('A' for Active; 'I' for Inactive)
REMARK    1  A    between atoms: O_1  and  C_2 
REMARK    2  A    between atoms: C_7  and  C_8 
REMARK    3  A    between atoms: C_8  and  O_9 
ROOT
HETATM    1  C   LIG     1      14.892  32.097  19.261  1.00  0.00     0.082 A 
HETATM    2  C   LIG     1      15.398  33.054  20.154  1.00  0.00     0.037 A 
HETATM    3  C   LIG     1      15.700  34.343  19.712  1.00  0.00     0.003 A 
HETATM    4  C   LIG     1      15.493  34.689  18.376  1.00  0.00     0.001 A 
HETATM    5  C   LIG     1      14.995  33.744  17.476  1.00  0.00     0.021 A 
HETATM    6  C   LIG     1      14.706  32.435  17.903  1.00  0.00     0.070 A 
ENDROOT
BRANCH   6   7
HETATM    7  C   LIG     1      14.190  31.452  16.923  1.00  0.00     0.178 C 
HETATM    8  O   LIG     1      13.225  30.705  17.236  1.00  0.00    -0.646 OA
BRANCH   7   9
HETATM    9  O   LIG     1      14.724  31.354  15.640  1.00  0.00    -0.773 OA
HETATM   10  H   LIG     1      15.666  31.020  15.474  1.00  0.00     0.167 HD
ENDBRANCH   7   9
ENDBRANCH   6   7
BRANCH   1  11
HETATM   11  O   LIG     1      14.548  30.830  19.732  1.00  0.00    -0.360 OA
HETATM   12  H   LIG     1      13.784  30.302  19.330  1.00  0.00     0.217 HD
ENDBRANCH   1  11
TORSDOF 3
ENDMDL
