REMARK  3 active torsions:
REMARK  status: ('A' for Active; 'I' for Inactive)
REMARK    1  A    between atoms: O_1  and  C_2 
REMARK    2  A    between atoms: C_7  and  C_8 
REMARK    3  A    between atoms: C_8  and  O_9 
ROOT
HETATM    1  C   LIG     1       0.228  -0.867   0.143  1.00  0.00     0.082 A 
HETATM    2  C   LIG     1      -1.109  -1.220   0.381  1.00  0.00     0.037 A 
HETATM    3  C   LIG     1      -2.130  -0.286   0.199  1.00  0.00     0.003 A 
HETATM    4  C   LIG     1      -1.825   1.007  -0.227  1.00  0.00     0.001 A 
HETATM    5  C   LIG     1      -0.497   1.373  -0.462  1.00  0.00     0.021 A 
HETATM    6  C   LIG     1       0.544   0.448  -0.263  1.00  0.00     0.070 A 
ENDROOT
BRANCH   6   7
HETATM    7  C   LIG     1       1.942   0.869  -0.509  1.00  0.00     0.178 C 
HETATM    8  O   LIG     1       2.195   1.683  -1.437  1.00  0.00    -0.646 OA
BRANCH   7   9
HETATM    9  O   LIG     1       2.991   0.413   0.287  1.00  0.00    -0.773 OA
HETATM   10  H   LIG     1       2.831  -0.135   1.124  1.00  0.00     0.167 HD
ENDBRANCH   7   9
ENDBRANCH   6   7
BRANCH   1  11
HETATM   11  O   LIG     1       1.229  -1.828   0.281  1.00  0.00    -0.360 OA
HETATM   12  H   LIG     1       1.020  -2.778   0.562  1.00  0.00     0.217 HD
ENDBRANCH   1  11
TORSDOF 3
