REMARK  2 active torsions:
REMARK  status: ('A' for Active; 'I' for Inactive)
REMARK    1  A    between atoms: C_2  and  C_4 
REMARK    2  A    between atoms: C_4  and  C_5 
ROOT
HETATM    1  C   LIG     1      -1.531  -0.028  -1.440  1.00  0.00     0.010 C 
HETATM    2  C   LIG     1      -0.556  -0.270  -0.282  1.00  0.00    -0.019 C 
HETATM    3  C   LIG     1      -1.309  -0.231   1.056  1.00  0.00     0.010 C 
ENDROOT
BRANCH   2   4
HETATM    4  C   LIG     1       0.584   0.771  -0.320  1.00  0.00     0.030 C 
BRANCH   4   5
HETATM    5  C   LIG     1       1.661   0.483   0.693  1.00  0.00    -0.036 C 
HETATM    6  C   LIG     1       2.471  -0.573   0.580  1.00  0.00     0.007 C 
ENDBRANCH   4   5
ENDBRANCH   2   4
TORSDOF 2
