MODEL 1
REMARK VINA RESULT:      -4.4      0.000      0.000
REMARK  2 active torsions:
REMARK  status: ('A' for Active; 'I' for Inactive)
REMARK    1  A    between atoms: C_2  and  C_4 
REMARK    2  A    between atoms: C_4  and  C_5 
ROOT
HETATM    1  C   LIG     1      18.483  34.789  26.382  1.00  0.00     0.010 C 
HETATM    2  C   LIG     1      17.458  35.633  25.614  1.00  0.00    -0.019 C 
HETATM    3  C   LIG     1      17.192  35.010  24.236  1.00  0.00     0.010 C 
ENDROOT
BRANCH   2   4
HETATM    4  C   LIG     1      17.954  37.090  25.491  1.00  0.00     0.030 C 
BRANCH   4   5
HETATM    5  C   LIG     1      17.081  37.921  24.587  1.00  0.00    -0.036 C 
HETATM    6  C   LIG     1      17.552  38.477  23.468  1.00  0.00     0.007 C 
ENDBRANCH   4   5
ENDBRANCH   2   4
TORSDOF 2
ENDMDL
MODEL 2
REMARK VINA RESULT:      -4.4      0.937      3.319
REMARK  2 active torsions:
REMARK  status: ('A' for Active; 'I' for Inactive)
REMARK    1  A    between atoms: C_2  and  C_4 
REMARK    2  A    between atoms: C_4  and  C_5 
ROOT
HETATM    1  C   LIG     1      16.864  36.084  22.795  1.00  0.00     0.010 C 
HETATM    2  C   LIG     1      16.812  37.283  23.748  1.00  0.00    -0.019 C 
HETATM    3  C   LIG     1      17.499  38.496  23.104  1.00  0.00     0.010 C 
ENDROOT
BRANCH   2   4
HETATM    4  C   LIG     1      17.462  36.917  25.100  1.00  0.00     0.030 C 
BRANCH   4   5
HETATM    5  C   LIG     1      17.494  35.430  25.340  1.00  0.00    -0.036 C 
HETATM    6  C   LIG     1      18.241  34.887  26.305  1.00  0.00     0.007 C 
ENDBRANCH   4   5
ENDBRANCH   2   4
TORSDOF 2
ENDMDL
MODEL 3
REMARK VINA RESULT:      -4.4      1.254      2.526
REMARK  2 active torsions:
REMARK  status: ('A' for Active; 'I' for Inactive)
REMARK    1  A    between atoms: C_2  and  C_4 
REMARK    2  A    between atoms: C_4  and  C_5 
ROOT
HETATM    1  C   LIG     1      17.858  37.077  25.298  1.00  0.00     0.010 C 
HETATM    2  C   LIG     1      17.376  35.632  25.468  1.00  0.00    -0.019 C 
HETATM    3  C   LIG     1      18.349  34.857  26.370  1.00  0.00     0.010 C 
ENDROOT
BRANCH   2   4
HETATM    4  C   LIG     1      17.224  34.956  24.088  1.00  0.00     0.030 C 
BRANCH   4   5
HETATM    5  C   LIG     1      16.950  35.947  22.988  1.00  0.00    -0.036 C 
HETATM    6  C   LIG     1      16.850  35.573  21.710  1.00  0.00     0.007 C 
ENDBRANCH   4   5
ENDBRANCH   2   4
TORSDOF 2
ENDMDL
MODEL 4
REMARK VINA RESULT:      -4.3      3.869      5.412
REMARK  2 active torsions:
REMARK  status: ('A' for Active; 'I' for Inactive)
REMARK    1  A    between atoms: C_2  and  C_4 
REMARK    2  A    between atoms: C_4  and  C_5 
ROOT
HETATM    1  C   LIG     1      18.761  37.015  19.860  1.00  0.00     0.010 C 
HETATM    2  C   LIG     1      19.034  38.518  19.732  1.00  0.00    -0.019 C 
HETATM    3  C   LIG     1      20.515  38.757  19.405  1.00  0.00     0.010 C 
ENDROOT
BRANCH   2   4
HETATM    4  C   LIG     1      18.615  39.247  21.027  1.00  0.00     0.030 C 
BRANCH   4   5
HETATM    5  C   LIG     1      17.792  38.375  21.939  1.00  0.00    -0.036 C 
HETATM    6  C   LIG     1      16.717  38.842  22.579  1.00  0.00     0.007 C 
ENDBRANCH   4   5
ENDBRANCH   2   4
TORSDOF 2
ENDMDL
MODEL 5
REMARK VINA RESULT:      -4.2      4.531      6.154
REMARK  2 active torsions:
REMARK  status: ('A' for Active; 'I' for Inactive)
REMARK    1  A    between atoms: C_2  and  C_4 
REMARK    2  A    between atoms: C_4  and  C_5 
ROOT
HETATM    1  C   LIG     1      19.045  39.235  20.634  1.00  0.00     0.010 C 
HETATM    2  C   LIG     1      19.469  38.392  19.425  1.00  0.00    -0.019 C 
HETATM    3  C   LIG     1      18.933  39.022  18.131  1.00  0.00     0.010 C 
ENDROOT
BRANCH   2   4
HETATM    4  C   LIG     1      18.978  36.938  19.592  1.00  0.00     0.030 C 
BRANCH   4   5
HETATM    5  C   LIG     1      17.988  36.790  20.719  1.00  0.00    -0.036 C 
HETATM    6  C   LIG     1      17.050  35.839  20.713  1.00  0.00     0.007 C 
ENDBRANCH   4   5
ENDBRANCH   2   4
TORSDOF 2
ENDMDL
MODEL 6
REMARK VINA RESULT:      -4.2      2.933      4.538
REMARK  2 active torsions:
REMARK  status: ('A' for Active; 'I' for Inactive)
REMARK    1  A    between atoms: C_2  and  C_4 
REMARK    2  A    between atoms: C_4  and  C_5 
ROOT
HETATM    1  C   LIG     1      17.664  38.336  23.554  1.00  0.00     0.010 C 
HETATM    2  C   LIG     1      17.456  38.463  22.040  1.00  0.00    -0.019 C 
HETATM    3  C   LIG     1      17.414  37.070  21.396  1.00  0.00     0.010 C 
ENDROOT
BRANCH   2   4
HETATM    4  C   LIG     1      18.568  39.339  21.422  1.00  0.00     0.030 C 
BRANCH   4   5
HETATM    5  C   LIG     1      18.922  38.916  20.020  1.00  0.00    -0.036 C 
HETATM    6  C   LIG     1      20.189  38.829  19.609  1.00  0.00     0.007 C 
ENDBRANCH   4   5
ENDBRANCH   2   4
TORSDOF 2
ENDMDL
MODEL 7
REMARK VINA RESULT:      -4.1      2.641      3.817
REMARK  2 active torsions:
REMARK  status: ('A' for Active; 'I' for Inactive)
REMARK    1  A    between atoms: C_2  and  C_4 
REMARK    2  A    between atoms: C_4  and  C_5 
ROOT
HETATM    1  C   LIG     1      15.340  34.966  21.338  1.00  0.00     0.010 C 
HETATM    2  C   LIG     1      16.829  35.086  21.681  1.00  0.00    -0.019 C 
HETATM    3  C   LIG     1      17.009  35.223  23.200  1.00  0.00     0.010 C 
ENDROOT
BRANCH   2   4
HETATM    4  C   LIG     1      17.454  36.281  20.928  1.00  0.00     0.030 C 
BRANCH   4   5
HETATM    5  C   LIG     1      17.380  37.562  21.717  1.00  0.00    -0.036 C 
HETATM    6  C   LIG     1      18.153  38.613  21.429  1.00  0.00     0.007 C 
ENDBRANCH   4   5
ENDBRANCH   2   4
TORSDOF 2
ENDMDL
MODEL 8
REMARK VINA RESULT:      -4.0      3.430      4.756
REMARK  2 active torsions:
REMARK  status: ('A' for Active; 'I' for Inactive)
REMARK    1  A    between atoms: C_2  and  C_4 
REMARK    2  A    between atoms: C_4  and  C_5 
ROOT
HETATM    1  C   LIG     1      17.420  37.833  22.122  1.00  0.00     0.010 C 
HETATM    2  C   LIG     1      17.324  36.756  21.036  1.00  0.00    -0.019 C 
HETATM    3  C   LIG     1      17.211  35.367  21.681  1.00  0.00     0.010 C 
ENDROOT
BRANCH   2   4
HETATM    4  C   LIG     1      18.544  36.843  20.092  1.00  0.00     0.030 C 
BRANCH   4   5
HETATM    5  C   LIG     1      18.972  38.264  19.834  1.00  0.00    -0.036 C 
HETATM    6  C   LIG     1      20.242  38.581  19.570  1.00  0.00     0.007 C 
ENDBRANCH   4   5
ENDBRANCH   2   4
TORSDOF 2
ENDMDL
MODEL 9
REMARK VINA RESULT:      -3.9     10.822     12.342
REMARK  2 active torsions:
REMARK  status: ('A' for Active; 'I' for Inactive)
REMARK    1  A    between atoms: C_2  and  C_4 
REMARK    2  A    between atoms: C_4  and  C_5 
ROOT
HETATM    1  C   LIG     1      15.473  31.158  13.623  1.00  0.00     0.010 C 
HETATM    2  C   LIG     1      14.992  30.031  14.544  1.00  0.00    -0.019 C 
HETATM    3  C   LIG     1      15.224  28.669  13.874  1.00  0.00     0.010 C 
ENDROOT
BRANCH   2   4
HETATM    4  C   LIG     1      13.504  30.238  14.905  1.00  0.00     0.030 C 
BRANCH   4   5
HETATM    5  C   LIG     1      13.310  30.633  16.345  1.00  0.00    -0.036 C 
HETATM    6  C   LIG     1      13.730  31.810  16.816  1.00  0.00     0.007 C 
ENDBRANCH   4   5
ENDBRANCH   2   4
TORSDOF 2
ENDMDL
MODEL 10
REMARK VINA RESULT:      -3.8      2.208      3.894
REMARK  2 active torsions:
REMARK  status: ('A' for Active; 'I' for Inactive)
REMARK    1  A    between atoms: C_2  and  C_4 
REMARK    2  A    between atoms: C_4  and  C_5 
ROOT
HETATM    1  C   LIG     1      17.215  38.684  22.441  1.00  0.00     0.010 C 
HETATM    2  C   LIG     1      16.616  37.665  23.416  1.00  0.00    -0.019 C 
HETATM    3  C   LIG     1      17.191  37.884  24.824  1.00  0.00     0.010 C 
ENDROOT
BRANCH   2   4
HETATM    4  C   LIG     1      16.882  36.229  22.915  1.00  0.00     0.030 C 
BRANCH   4   5
HETATM    5  C   LIG     1      17.132  36.174  21.430  1.00  0.00    -0.036 C 
HETATM    6  C   LIG     1      16.393  35.413  20.618  1.00  0.00     0.007 C 
ENDBRANCH   4   5
ENDBRANCH   2   4
TORSDOF 2
ENDMDL
MODEL 11
REMARK VINA RESULT:      -3.8      3.451      5.079
REMARK  2 active torsions:
REMARK  status: ('A' for Active; 'I' for Inactive)
REMARK    1  A    between atoms: C_2  and  C_4 
REMARK    2  A    between atoms: C_4  and  C_5 
ROOT
HETATM    1  C   LIG     1      19.104  37.307  19.894  1.00  0.00     0.010 C 
HETATM    2  C   LIG     1      18.092  38.134  20.696  1.00  0.00    -0.019 C 
HETATM    3  C   LIG     1      18.792  39.344  21.334  1.00  0.00     0.010 C 
ENDROOT
BRANCH   2   4
HETATM    4  C   LIG     1      17.407  37.250  21.761  1.00  0.00     0.030 C 
BRANCH   4   5
HETATM    5  C   LIG     1      17.092  35.870  21.247  1.00  0.00    -0.036 C 
HETATM    6  C   LIG     1      16.408  34.985  21.977  1.00  0.00     0.007 C 
ENDBRANCH   4   5
ENDBRANCH   2   4
TORSDOF 2
ENDMDL
MODEL 12
REMARK VINA RESULT:      -3.7      9.556     11.163
REMARK  2 active torsions:
REMARK  status: ('A' for Active; 'I' for Inactive)
REMARK    1  A    between atoms: C_2  and  C_4 
REMARK    2  A    between atoms: C_4  and  C_5 
ROOT
HETATM    1  C   LIG     1      15.439  32.775  16.178  1.00  0.00     0.010 C 
HETATM    2  C   LIG     1      14.198  32.122  16.798  1.00  0.00    -0.019 C 
HETATM    3  C   LIG     1      14.453  31.812  18.281  1.00  0.00     0.010 C 
ENDROOT
BRANCH   2   4
HETATM    4  C   LIG     1      13.817  30.849  16.011  1.00  0.00     0.030 C 
BRANCH   4   5
HETATM    5  C   LIG     1      14.704  30.625  14.814  1.00  0.00    -0.036 C 
HETATM    6  C   LIG     1      14.716  29.464  14.153  1.00  0.00     0.007 C 
ENDBRANCH   4   5
ENDBRANCH   2   4
TORSDOF 2
ENDMDL
MODEL 13
REMARK VINA RESULT:      -3.7      8.660     10.218
REMARK  2 active torsions:
REMARK  status: ('A' for Active; 'I' for Inactive)
REMARK    1  A    between atoms: C_2  and  C_4 
REMARK    2  A    between atoms: C_4  and  C_5 
ROOT
HETATM    1  C   LIG     1      15.197  31.420  15.066  1.00  0.00     0.010 C 
HETATM    2  C   LIG     1      14.293  31.146  16.273  1.00  0.00    -0.019 C 
HETATM    3  C   LIG     1      12.944  30.581  15.803  1.00  0.00     0.010 C 
ENDROOT
BRANCH   2   4
HETATM    4  C   LIG     1      14.108  32.435  17.103  1.00  0.00     0.030 C 
BRANCH   4   5
HETATM    5  C   LIG     1      15.029  32.491  18.293  1.00  0.00    -0.036 C 
HETATM    6  C   LIG     1      14.848  31.711  19.362  1.00  0.00     0.007 C 
ENDBRANCH   4   5
ENDBRANCH   2   4
TORSDOF 2
ENDMDL
MODEL 14
REMARK VINA RESULT:      -3.6     10.876     12.225
REMARK  2 active torsions:
REMARK  status: ('A' for Active; 'I' for Inactive)
REMARK    1  A    between atoms: C_2  and  C_4 
REMARK    2  A    between atoms: C_4  and  C_5 
ROOT
HETATM    1  C   LIG     1      13.862  30.414  15.218  1.00  0.00     0.010 C 
HETATM    2  C   LIG     1      14.660  30.156  13.934  1.00  0.00    -0.019 C 
HETATM    3  C   LIG     1      15.400  28.814  14.036  1.00  0.00     0.010 C 
ENDROOT
BRANCH   2   4
HETATM    4  C   LIG     1      15.637  31.322  13.671  1.00  0.00     0.030 C 
BRANCH   4   5
HETATM    5  C   LIG     1      16.039  32.034  14.936  1.00  0.00    -0.036 C 
HETATM    6  C   LIG     1      17.165  32.748  15.016  1.00  0.00     0.007 C 
ENDBRANCH   4   5
ENDBRANCH   2   4
TORSDOF 2
ENDMDL
MODEL 15
REMARK VINA RESULT:      -3.6     10.714     11.549
REMARK  2 active torsions:
REMARK  status: ('A' for Active; 'I' for Inactive)
REMARK    1  A    between atoms: C_2  and  C_4 
REMARK    2  A    between atoms: C_4  and  C_5 
ROOT
HETATM    1  C   LIG     1      14.660  30.120  14.066  1.00  0.00     0.010 C 
HETATM    2  C   LIG     1      14.442  30.584  15.511  1.00  0.00    -0.019 C 
HETATM    3  C   LIG     1      12.940  30.638  15.825  1.00  0.00     0.010 C 
ENDROOT
BRANCH   2   4
HETATM    4  C   LIG     1      15.117  31.955  15.737  1.00  0.00     0.030 C 
BRANCH   4   5
HETATM    5  C   LIG     1      16.054  32.327  14.619  1.00  0.00    -0.036 C 
HETATM    6  C   LIG     1      17.275  32.813  14.854  1.00  0.00     0.007 C 
ENDBRANCH   4   5
ENDBRANCH   2   4
TORSDOF 2
ENDMDL
MODEL 16
REMARK VINA RESULT:      -3.5      4.394      6.269
REMARK  2 active torsions:
REMARK  status: ('A' for Active; 'I' for Inactive)
REMARK    1  A    between atoms: C_2  and  C_4 
REMARK    2  A    between atoms: C_4  and  C_5 
ROOT
HETATM    1  C   LIG     1      16.091  35.310  19.858  1.00  0.00     0.010 C 
HETATM    2  C   LIG     1      15.488  34.986  21.230  1.00  0.00    -0.019 C 
HETATM    3  C   LIG     1      16.584  35.014  22.306  1.00  0.00     0.010 C 
ENDROOT
BRANCH   2   4
HETATM    4  C   LIG     1      14.774  33.618  21.187  1.00  0.00     0.030 C 
BRANCH   4   5
HETATM    5  C   LIG     1      15.348  32.700  20.140  1.00  0.00    -0.036 C 
HETATM    6  C   LIG     1      14.830  31.493  19.899  1.00  0.00     0.007 C 
ENDBRANCH   4   5
ENDBRANCH   2   4
TORSDOF 2
ENDMDL
MODEL 17
REMARK VINA RESULT:      -3.5     10.613     11.548
REMARK  2 active torsions:
REMARK  status: ('A' for Active; 'I' for Inactive)
REMARK    1  A    between atoms: C_2  and  C_4 
REMARK    2  A    between atoms: C_4  and  C_5 
ROOT
HETATM    1  C   LIG     1      17.018  33.169  14.862  1.00  0.00     0.010 C 
HETATM    2  C   LIG     1      16.270  31.831  14.878  1.00  0.00    -0.019 C 
HETATM    3  C   LIG     1      15.797  31.476  13.460  1.00  0.00     0.010 C 
ENDROOT
BRANCH   2   4
HETATM    4  C   LIG     1      15.088  31.893  15.869  1.00  0.00     0.030 C 
BRANCH   4   5
HETATM    5  C   LIG     1      14.078  30.801  15.631  1.00  0.00    -0.036 C 
HETATM    6  C   LIG     1      12.878  30.811  16.217  1.00  0.00     0.007 C 
ENDBRANCH   4   5
ENDBRANCH   2   4
TORSDOF 2
ENDMDL
MODEL 18
REMARK VINA RESULT:      -3.4     11.222     12.839
REMARK  2 active torsions:
REMARK  status: ('A' for Active; 'I' for Inactive)
REMARK    1  A    between atoms: C_2  and  C_4 
REMARK    2  A    between atoms: C_4  and  C_5 
ROOT
HETATM    1  C   LIG     1      15.123  32.212  15.873  1.00  0.00     0.010 C 
HETATM    2  C   LIG     1      15.714  31.263  14.824  1.00  0.00    -0.019 C 
HETATM    3  C   LIG     1      15.970  32.021  13.513  1.00  0.00     0.010 C 
ENDROOT
BRANCH   2   4
HETATM    4  C   LIG     1      14.773  30.058  14.606  1.00  0.00     0.030 C 
BRANCH   4   5
HETATM    5  C   LIG     1      15.310  29.083  13.591  1.00  0.00    -0.036 C 
HETATM    6  C   LIG     1      15.079  27.771  13.682  1.00  0.00     0.007 C 
ENDBRANCH   4   5
ENDBRANCH   2   4
TORSDOF 2
ENDMDL
MODEL 19
REMARK VINA RESULT:      -3.4     11.760     12.670
REMARK  2 active torsions:
REMARK  status: ('A' for Active; 'I' for Inactive)
REMARK    1  A    between atoms: C_2  and  C_4 
REMARK    2  A    between atoms: C_4  and  C_5 
ROOT
HETATM    1  C   LIG     1      30.160  40.275  19.394  1.00  0.00     0.010 C 
HETATM    2  C   LIG     1      29.121  39.600  20.297  1.00  0.00    -0.019 C 
HETATM    3  C   LIG     1      29.618  38.211  20.724  1.00  0.00     0.010 C 
ENDROOT
BRANCH   2   4
HETATM    4  C   LIG     1      27.761  39.516  19.571  1.00  0.00     0.030 C 
BRANCH   4   5
HETATM    5  C   LIG     1      27.616  38.254  18.762  1.00  0.00    -0.036 C 
HETATM    6  C   LIG     1      26.487  37.957  18.115  1.00  0.00     0.007 C 
ENDBRANCH   4   5
ENDBRANCH   2   4
TORSDOF 2
ENDMDL
MODEL 20
REMARK VINA RESULT:      -3.1     10.275     11.404
REMARK  2 active torsions:
REMARK  status: ('A' for Active; 'I' for Inactive)
REMARK    1  A    between atoms: C_2  and  C_4 
REMARK    2  A    between atoms: C_4  and  C_5 
ROOT
HETATM    1  C   LIG     1      15.751  31.519  14.156  1.00  0.00     0.010 C 
HETATM    2  C   LIG     1      16.506  32.216  15.293  1.00  0.00    -0.019 C 
HETATM    3  C   LIG     1      15.523  33.007  16.169  1.00  0.00     0.010 C 
ENDROOT
BRANCH   2   4
HETATM    4  C   LIG     1      17.610  33.129  14.717  1.00  0.00     0.030 C 
BRANCH   4   5
HETATM    5  C   LIG     1      17.467  33.339  13.232  1.00  0.00    -0.036 C 
HETATM    6  C   LIG     1      18.350  34.059  12.533  1.00  0.00     0.007 C 
ENDBRANCH   4   5
ENDBRANCH   2   4
TORSDOF 2
ENDMDL
