MODEL 1
REMARK VINA RESULT:      -4.7      0.000      0.000
REMARK  2 active torsions:
REMARK  status: ('A' for Active; 'I' for Inactive)
REMARK    1  A    between atoms: C_3  and  C_4 
REMARK    2  A    between atoms: C_4  and  C_5 
ROOT
HETATM    1  C   LIG     1      17.116  38.091  22.689  1.00  0.00     0.012 C 
HETATM    2  C   LIG     1      17.204  38.018  23.890  1.00  0.00    -0.117 C 
HETATM    3  C   LIG     1      17.309  37.930  25.351  1.00  0.00     0.093 C 
ENDROOT
BRANCH   3   4
HETATM    4  C   LIG     1      18.576  37.168  25.750  1.00  0.00     0.012 C 
BRANCH   4   5
HETATM    5  C   LIG     1      18.251  36.048  26.745  1.00  0.00    -0.004 C 
HETATM    6  C   LIG     1      17.626  34.849  26.039  1.00  0.00     0.005 C 
ENDBRANCH   4   5
ENDBRANCH   3   4
TORSDOF 2
ENDMDL
MODEL 2
REMARK VINA RESULT:      -4.6      0.476      3.510
REMARK  2 active torsions:
REMARK  status: ('A' for Active; 'I' for Inactive)
REMARK    1  A    between atoms: C_3  and  C_4 
REMARK    2  A    between atoms: C_4  and  C_5 
ROOT
HETATM    1  C   LIG     1      17.631  34.689  26.156  1.00  0.00     0.012 C 
HETATM    2  C   LIG     1      18.019  35.820  26.006  1.00  0.00    -0.117 C 
HETATM    3  C   LIG     1      18.493  37.197  25.823  1.00  0.00     0.093 C 
ENDROOT
BRANCH   3   4
HETATM    4  C   LIG     1      17.342  38.106  25.384  1.00  0.00     0.012 C 
BRANCH   4   5
HETATM    5  C   LIG     1      16.820  37.700  24.001  1.00  0.00    -0.004 C 
HETATM    6  C   LIG     1      17.527  38.478  22.895  1.00  0.00     0.005 C 
ENDBRANCH   4   5
ENDBRANCH   3   4
TORSDOF 2
ENDMDL
MODEL 3
REMARK VINA RESULT:      -4.3      2.939      4.540
REMARK  2 active torsions:
REMARK  status: ('A' for Active; 'I' for Inactive)
REMARK    1  A    between atoms: C_3  and  C_4 
REMARK    2  A    between atoms: C_4  and  C_5 
ROOT
HETATM    1  C   LIG     1      19.110  36.913  19.470  1.00  0.00     0.012 C 
HETATM    2  C   LIG     1      18.995  37.997  19.984  1.00  0.00    -0.117 C 
HETATM    3  C   LIG     1      18.854  39.319  20.607  1.00  0.00     0.093 C 
ENDROOT
BRANCH   3   4
HETATM    4  C   LIG     1      18.538  39.175  22.099  1.00  0.00     0.012 C 
BRANCH   4   5
HETATM    5  C   LIG     1      17.061  38.829  22.316  1.00  0.00    -0.004 C 
HETATM    6  C   LIG     1      16.908  37.491  23.033  1.00  0.00     0.005 C 
ENDBRANCH   4   5
ENDBRANCH   3   4
TORSDOF 2
ENDMDL
MODEL 4
REMARK VINA RESULT:      -4.3      3.705      5.164
REMARK  2 active torsions:
REMARK  status: ('A' for Active; 'I' for Inactive)
REMARK    1  A    between atoms: C_3  and  C_4 
REMARK    2  A    between atoms: C_4  and  C_5 
ROOT
HETATM    1  C   LIG     1      17.060  35.977  21.542  1.00  0.00     0.012 C 
HETATM    2  C   LIG     1      17.191  37.155  21.761  1.00  0.00    -0.117 C 
HETATM    3  C   LIG     1      17.348  38.589  22.030  1.00  0.00     0.093 C 
ENDROOT
BRANCH   3   4
HETATM    4  C   LIG     1      18.773  39.042  21.695  1.00  0.00     0.012 C 
BRANCH   4   5
HETATM    5  C   LIG     1      18.904  39.380  20.206  1.00  0.00    -0.004 C 
HETATM    6  C   LIG     1      20.169  38.770  19.612  1.00  0.00     0.005 C 
ENDBRANCH   4   5
ENDBRANCH   3   4
TORSDOF 2
ENDMDL
MODEL 5
REMARK VINA RESULT:      -4.2      3.498      4.937
REMARK  2 active torsions:
REMARK  status: ('A' for Active; 'I' for Inactive)
REMARK    1  A    between atoms: C_3  and  C_4 
REMARK    2  A    between atoms: C_4  and  C_5 
ROOT
HETATM    1  C   LIG     1      20.243  38.845  19.529  1.00  0.00     0.012 C 
HETATM    2  C   LIG     1      19.498  37.902  19.620  1.00  0.00    -0.117 C 
HETATM    3  C   LIG     1      18.592  36.752  19.728  1.00  0.00     0.093 C 
ENDROOT
BRANCH   3   4
HETATM    4  C   LIG     1      17.678  36.905  20.947  1.00  0.00     0.012 C 
BRANCH   4   5
HETATM    5  C   LIG     1      16.932  35.598  21.240  1.00  0.00    -0.004 C 
HETATM    6  C   LIG     1      17.011  35.239  22.720  1.00  0.00     0.005 C 
ENDBRANCH   4   5
ENDBRANCH   3   4
TORSDOF 2
ENDMDL
MODEL 6
REMARK VINA RESULT:      -4.2      1.128      2.046
REMARK  2 active torsions:
REMARK  status: ('A' for Active; 'I' for Inactive)
REMARK    1  A    between atoms: C_3  and  C_4 
REMARK    2  A    between atoms: C_4  and  C_5 
ROOT
HETATM    1  C   LIG     1      18.419  39.057  21.866  1.00  0.00     0.012 C 
HETATM    2  C   LIG     1      17.583  38.388  22.420  1.00  0.00    -0.117 C 
HETATM    3  C   LIG     1      16.563  37.574  23.092  1.00  0.00     0.093 C 
ENDROOT
BRANCH   3   4
HETATM    4  C   LIG     1      17.204  36.701  24.174  1.00  0.00     0.012 C 
BRANCH   4   5
HETATM    5  C   LIG     1      17.571  37.535  25.406  1.00  0.00    -0.004 C 
HETATM    6  C   LIG     1      18.504  36.766  26.335  1.00  0.00     0.005 C 
ENDBRANCH   4   5
ENDBRANCH   3   4
TORSDOF 2
ENDMDL
MODEL 7
REMARK VINA RESULT:      -4.1      3.166      3.785
REMARK  2 active torsions:
REMARK  status: ('A' for Active; 'I' for Inactive)
REMARK    1  A    between atoms: C_3  and  C_4 
REMARK    2  A    between atoms: C_4  and  C_5 
ROOT
HETATM    1  C   LIG     1      19.079  39.388  20.455  1.00  0.00     0.012 C 
HETATM    2  C   LIG     1      18.486  39.073  21.456  1.00  0.00    -0.117 C 
HETATM    3  C   LIG     1      17.766  38.691  22.677  1.00  0.00     0.093 C 
ENDROOT
BRANCH   3   4
HETATM    4  C   LIG     1      16.646  37.700  22.348  1.00  0.00     0.012 C 
BRANCH   4   5
HETATM    5  C   LIG     1      17.182  36.516  21.536  1.00  0.00    -0.004 C 
HETATM    6  C   LIG     1      16.970  35.199  22.276  1.00  0.00     0.005 C 
ENDBRANCH   4   5
ENDBRANCH   3   4
TORSDOF 2
ENDMDL
MODEL 8
REMARK VINA RESULT:      -4.0      9.300     10.762
REMARK  2 active torsions:
REMARK  status: ('A' for Active; 'I' for Inactive)
REMARK    1  A    between atoms: C_3  and  C_4 
REMARK    2  A    between atoms: C_4  and  C_5 
ROOT
HETATM    1  C   LIG     1      14.873  31.555  19.824  1.00  0.00     0.012 C 
HETATM    2  C   LIG     1      14.684  31.842  18.668  1.00  0.00    -0.117 C 
HETATM    3  C   LIG     1      14.457  32.192  17.261  1.00  0.00     0.093 C 
ENDROOT
BRANCH   3   4
HETATM    4  C   LIG     1      13.026  31.836  16.847  1.00  0.00     0.012 C 
BRANCH   4   5
HETATM    5  C   LIG     1      13.014  30.634  15.897  1.00  0.00    -0.004 C 
HETATM    6  C   LIG     1      14.349  30.487  15.175  1.00  0.00     0.005 C 
ENDBRANCH   4   5
ENDBRANCH   3   4
TORSDOF 2
ENDMDL
MODEL 9
REMARK VINA RESULT:      -4.0      2.797      4.426
REMARK  2 active torsions:
REMARK  status: ('A' for Active; 'I' for Inactive)
REMARK    1  A    between atoms: C_3  and  C_4 
REMARK    2  A    between atoms: C_4  and  C_5 
ROOT
HETATM    1  C   LIG     1      19.193  37.144  19.595  1.00  0.00     0.012 C 
HETATM    2  C   LIG     1      18.248  36.603  20.113  1.00  0.00    -0.117 C 
HETATM    3  C   LIG     1      17.098  35.942  20.741  1.00  0.00     0.093 C 
ENDROOT
BRANCH   3   4
HETATM    4  C   LIG     1      16.978  36.360  22.210  1.00  0.00     0.012 C 
BRANCH   4   5
HETATM    5  C   LIG     1      16.832  37.880  22.336  1.00  0.00    -0.004 C 
HETATM    6  C   LIG     1      17.733  38.432  23.437  1.00  0.00     0.005 C 
ENDBRANCH   4   5
ENDBRANCH   3   4
TORSDOF 2
ENDMDL
MODEL 10
REMARK VINA RESULT:      -4.0      3.709      5.674
REMARK  2 active torsions:
REMARK  status: ('A' for Active; 'I' for Inactive)
REMARK    1  A    between atoms: C_3  and  C_4 
REMARK    2  A    between atoms: C_4  and  C_5 
ROOT
HETATM    1  C   LIG     1      17.274  38.522  22.304  1.00  0.00     0.012 C 
HETATM    2  C   LIG     1      17.534  37.606  21.564  1.00  0.00    -0.117 C 
HETATM    3  C   LIG     1      17.849  36.490  20.664  1.00  0.00     0.093 C 
ENDROOT
BRANCH   3   4
HETATM    4  C   LIG     1      18.499  37.008  19.378  1.00  0.00     0.012 C 
BRANCH   4   5
HETATM    5  C   LIG     1      19.977  37.340  19.606  1.00  0.00    -0.004 C 
HETATM    6  C   LIG     1      20.244  38.830  19.417  1.00  0.00     0.005 C 
ENDBRANCH   4   5
ENDBRANCH   3   4
TORSDOF 2
ENDMDL
MODEL 11
REMARK VINA RESULT:      -3.9      9.896     11.172
REMARK  2 active torsions:
REMARK  status: ('A' for Active; 'I' for Inactive)
REMARK    1  A    between atoms: C_3  and  C_4 
REMARK    2  A    between atoms: C_4  and  C_5 
ROOT
HETATM    1  C   LIG     1      14.798  30.276  14.280  1.00  0.00     0.012 C 
HETATM    2  C   LIG     1      14.013  30.450  15.179  1.00  0.00    -0.117 C 
HETATM    3  C   LIG     1      13.057  30.659  16.273  1.00  0.00     0.093 C 
ENDROOT
BRANCH   3   4
HETATM    4  C   LIG     1      13.251  32.046  16.893  1.00  0.00     0.012 C 
BRANCH   4   5
HETATM    5  C   LIG     1      14.654  32.186  17.494  1.00  0.00    -0.004 C 
HETATM    6  C   LIG     1      14.675  31.749  18.955  1.00  0.00     0.005 C 
ENDBRANCH   4   5
ENDBRANCH   3   4
TORSDOF 2
ENDMDL
MODEL 12
REMARK VINA RESULT:      -3.9     11.872     13.252
REMARK  2 active torsions:
REMARK  status: ('A' for Active; 'I' for Inactive)
REMARK    1  A    between atoms: C_3  and  C_4 
REMARK    2  A    between atoms: C_4  and  C_5 
ROOT
HETATM    1  C   LIG     1      15.478  27.631  13.695  1.00  0.00     0.012 C 
HETATM    2  C   LIG     1      15.272  28.818  13.710  1.00  0.00    -0.117 C 
HETATM    3  C   LIG     1      15.020  30.264  13.726  1.00  0.00     0.093 C 
ENDROOT
BRANCH   3   4
HETATM    4  C   LIG     1      14.776  30.748  15.159  1.00  0.00     0.012 C 
BRANCH   4   5
HETATM    5  C   LIG     1      13.323  30.501  15.580  1.00  0.00    -0.004 C 
HETATM    6  C   LIG     1      12.878  31.503  16.640  1.00  0.00     0.005 C 
ENDBRANCH   4   5
ENDBRANCH   3   4
TORSDOF 2
ENDMDL
MODEL 13
REMARK VINA RESULT:      -3.8      4.291      7.057
REMARK  2 active torsions:
REMARK  status: ('A' for Active; 'I' for Inactive)
REMARK    1  A    between atoms: C_3  and  C_4 
REMARK    2  A    between atoms: C_4  and  C_5 
ROOT
HETATM    1  C   LIG     1      17.848  39.070  21.831  1.00  0.00     0.012 C 
HETATM    2  C   LIG     1      18.399  38.490  20.929  1.00  0.00    -0.117 C 
HETATM    3  C   LIG     1      19.069  37.781  19.832  1.00  0.00     0.093 C 
ENDROOT
BRANCH   3   4
HETATM    4  C   LIG     1      19.635  38.780  18.818  1.00  0.00     0.012 C 
BRANCH   4   5
HETATM    5  C   LIG     1      18.507  39.509  18.079  1.00  0.00    -0.004 C 
HETATM    6  C   LIG     1      18.820  39.646  16.593  1.00  0.00     0.005 C 
ENDBRANCH   4   5
ENDBRANCH   3   4
TORSDOF 2
ENDMDL
MODEL 14
REMARK VINA RESULT:      -3.8     11.109     12.443
REMARK  2 active torsions:
REMARK  status: ('A' for Active; 'I' for Inactive)
REMARK    1  A    between atoms: C_3  and  C_4 
REMARK    2  A    between atoms: C_4  and  C_5 
ROOT
HETATM    1  C   LIG     1      16.745  32.837  15.006  1.00  0.00     0.012 C 
HETATM    2  C   LIG     1      16.135  32.005  14.383  1.00  0.00    -0.117 C 
HETATM    3  C   LIG     1      15.395  30.991  13.622  1.00  0.00     0.093 C 
ENDROOT
BRANCH   3   4
HETATM    4  C   LIG     1      14.894  29.883  14.553  1.00  0.00     0.012 C 
BRANCH   4   5
HETATM    5  C   LIG     1      13.406  30.064  14.870  1.00  0.00    -0.004 C 
HETATM    6  C   LIG     1      13.207  30.752  16.216  1.00  0.00     0.005 C 
ENDBRANCH   4   5
ENDBRANCH   3   4
TORSDOF 2
ENDMDL
MODEL 15
REMARK VINA RESULT:      -3.6     11.474     12.093
REMARK  2 active torsions:
REMARK  status: ('A' for Active; 'I' for Inactive)
REMARK    1  A    between atoms: C_3  and  C_4 
REMARK    2  A    between atoms: C_4  and  C_5 
ROOT
HETATM    1  C   LIG     1      26.407  38.027  17.959  1.00  0.00     0.012 C 
HETATM    2  C   LIG     1      27.313  38.022  18.754  1.00  0.00    -0.117 C 
HETATM    3  C   LIG     1      28.417  38.016  19.722  1.00  0.00     0.093 C 
ENDROOT
BRANCH   3   4
HETATM    4  C   LIG     1      28.476  39.349  20.473  1.00  0.00     0.012 C 
BRANCH   4   5
HETATM    5  C   LIG     1      29.577  39.328  21.540  1.00  0.00    -0.004 C 
HETATM    6  C   LIG     1      30.242  37.957  21.619  1.00  0.00     0.005 C 
ENDBRANCH   4   5
ENDBRANCH   3   4
TORSDOF 2
ENDMDL
MODEL 16
REMARK VINA RESULT:      -3.5     11.233     12.825
REMARK  2 active torsions:
REMARK  status: ('A' for Active; 'I' for Inactive)
REMARK    1  A    between atoms: C_3  and  C_4 
REMARK    2  A    between atoms: C_4  and  C_5 
ROOT
HETATM    1  C   LIG     1      15.309  28.170  13.695  1.00  0.00     0.012 C 
HETATM    2  C   LIG     1      15.074  29.268  14.134  1.00  0.00    -0.117 C 
HETATM    3  C   LIG     1      14.787  30.603  14.671  1.00  0.00     0.093 C 
ENDROOT
BRANCH   3   4
HETATM    4  C   LIG     1      15.776  31.629  14.110  1.00  0.00     0.012 C 
BRANCH   4   5
HETATM    5  C   LIG     1      16.473  32.394  15.240  1.00  0.00    -0.004 C 
HETATM    6  C   LIG     1      17.673  33.177  14.718  1.00  0.00     0.005 C 
ENDBRANCH   4   5
ENDBRANCH   3   4
TORSDOF 2
ENDMDL
MODEL 17
REMARK VINA RESULT:      -3.5     11.813     13.300
REMARK  2 active torsions:
REMARK  status: ('A' for Active; 'I' for Inactive)
REMARK    1  A    between atoms: C_3  and  C_4 
REMARK    2  A    between atoms: C_4  and  C_5 
ROOT
HETATM    1  C   LIG     1      15.405  27.742  13.589  1.00  0.00     0.012 C 
HETATM    2  C   LIG     1      14.671  28.629  13.946  1.00  0.00    -0.117 C 
HETATM    3  C   LIG     1      13.775  29.707  14.381  1.00  0.00     0.093 C 
ENDROOT
BRANCH   3   4
HETATM    4  C   LIG     1      14.546  30.742  15.207  1.00  0.00     0.012 C 
BRANCH   4   5
HETATM    5  C   LIG     1      15.672  31.373  14.381  1.00  0.00    -0.004 C 
HETATM    6  C   LIG     1      16.492  32.348  15.221  1.00  0.00     0.005 C 
ENDBRANCH   4   5
ENDBRANCH   3   4
TORSDOF 2
ENDMDL
MODEL 18
REMARK VINA RESULT:      -3.5     10.416     11.805
REMARK  2 active torsions:
REMARK  status: ('A' for Active; 'I' for Inactive)
REMARK    1  A    between atoms: C_3  and  C_4 
REMARK    2  A    between atoms: C_4  and  C_5 
ROOT
HETATM    1  C   LIG     1      15.266  28.889  13.791  1.00  0.00     0.012 C 
HETATM    2  C   LIG     1      14.812  29.758  14.492  1.00  0.00    -0.117 C 
HETATM    3  C   LIG     1      14.256  30.814  15.347  1.00  0.00     0.093 C 
ENDROOT
BRANCH   3   4
HETATM    4  C   LIG     1      15.306  31.898  15.608  1.00  0.00     0.012 C 
BRANCH   4   5
HETATM    5  C   LIG     1      14.880  32.806  16.767  1.00  0.00    -0.004 C 
HETATM    6  C   LIG     1      14.404  31.988  17.963  1.00  0.00     0.005 C 
ENDBRANCH   4   5
ENDBRANCH   3   4
TORSDOF 2
ENDMDL
MODEL 19
REMARK VINA RESULT:      -3.4     10.059     11.236
REMARK  2 active torsions:
REMARK  status: ('A' for Active; 'I' for Inactive)
REMARK    1  A    between atoms: C_3  and  C_4 
REMARK    2  A    between atoms: C_4  and  C_5 
ROOT
HETATM    1  C   LIG     1      12.955  30.215  15.494  1.00  0.00     0.012 C 
HETATM    2  C   LIG     1      13.520  30.944  16.271  1.00  0.00    -0.117 C 
HETATM    3  C   LIG     1      14.207  31.830  17.218  1.00  0.00     0.093 C 
ENDROOT
BRANCH   3   4
HETATM    4  C   LIG     1      15.067  32.850  16.468  1.00  0.00     0.012 C 
BRANCH   4   5
HETATM    5  C   LIG     1      15.784  32.196  15.282  1.00  0.00    -0.004 C 
HETATM    6  C   LIG     1      17.243  32.635  15.210  1.00  0.00     0.005 C 
ENDBRANCH   4   5
ENDBRANCH   3   4
TORSDOF 2
ENDMDL
MODEL 20
REMARK VINA RESULT:      -3.3     10.400     11.495
REMARK  2 active torsions:
REMARK  status: ('A' for Active; 'I' for Inactive)
REMARK    1  A    between atoms: C_3  and  C_4 
REMARK    2  A    between atoms: C_4  and  C_5 
ROOT
HETATM    1  C   LIG     1      16.042  31.837  13.298  1.00  0.00     0.012 C 
HETATM    2  C   LIG     1      16.047  32.183  14.453  1.00  0.00    -0.117 C 
HETATM    3  C   LIG     1      16.055  32.607  15.858  1.00  0.00     0.093 C 
ENDROOT
BRANCH   3   4
HETATM    4  C   LIG     1      14.732  32.236  16.535  1.00  0.00     0.012 C 
BRANCH   4   5
HETATM    5  C   LIG     1      14.219  30.883  16.031  1.00  0.00    -0.004 C 
HETATM    6  C   LIG     1      12.704  30.778  16.177  1.00  0.00     0.005 C 
ENDBRANCH   4   5
ENDBRANCH   3   4
TORSDOF 2
ENDMDL
