REMARK  7 active torsions:
REMARK  status: ('A' for Active; 'I' for Inactive)
REMARK    1  A    between atoms: C_2  and  C_3 
REMARK    2  A    between atoms: C_3  and  C_4 
REMARK    3  A    between atoms: C_4  and  C_5 
REMARK    4  A    between atoms: C_5  and  C_6 
REMARK    5  A    between atoms: C_6  and  C_7 
REMARK    6  A    between atoms: C_7  and  C_8 
REMARK    7  A    between atoms: C_8  and  C_9 
ROOT
HETATM    1  C   LIG     1      -0.263  -0.153   1.152  1.00  0.00     0.000 C 
ENDROOT
BRANCH   1   2
HETATM    2  C   LIG     1      -1.593  -0.458   0.447  1.00  0.00     0.007 C 
BRANCH   2   3
HETATM    3  C   LIG     1      -2.781   0.025   1.286  1.00  0.00     0.077 C 
BRANCH   3   4
HETATM    4  C   LIG     1      -4.082  -0.256   0.580  1.00  0.00     0.123 C 
HETATM    5  C   LIG     1      -4.946   0.855   0.061  1.00  0.00     0.091 C 
HETATM    6  O   LIG     1      -4.448  -1.412   0.433  1.00  0.00    -0.298 OA
ENDBRANCH   3   4
ENDBRANCH   2   3
ENDBRANCH   1   2
BRANCH   1   7
HETATM    7  C   LIG     1       0.949  -0.742   0.412  1.00  0.00     0.000 C 
BRANCH   7   8
HETATM    8  C   LIG     1       1.225  -0.038  -0.929  1.00  0.00     0.000 C 
BRANCH   8   9
HETATM    9  C   LIG     1       2.561  -0.487  -1.558  1.00  0.00    -0.000 C 
BRANCH   9  10
HETATM   10  C   LIG     1       3.701   0.527  -1.367  1.00  0.00    -0.005 C 
HETATM   11  C   LIG     1       4.134   0.674   0.090  1.00  0.00     0.005 C 
ENDBRANCH   9  10
ENDBRANCH   8   9
ENDBRANCH   7   8
ENDBRANCH   1   7
TORSDOF 7
