REMARK  2 active torsions:
REMARK  status: ('A' for Active; 'I' for Inactive)
REMARK    1  A    between atoms: C_3  and  C_4 
REMARK    2  A    between atoms: C_4  and  C_5 
ROOT
HETATM    1  C   LIG     1       3.576  -0.007  -0.570  1.00  0.00     0.012 C 
HETATM    2  C   LIG     1       2.450  -0.420  -0.448  1.00  0.00    -0.117 C 
HETATM    3  C   LIG     1       1.080  -0.925  -0.299  1.00  0.00     0.093 C 
ENDROOT
BRANCH   3   4
HETATM    4  C   LIG     1       0.115   0.227  -0.004  1.00  0.00     0.012 C 
BRANCH   4   5
HETATM    5  C   LIG     1      -1.320  -0.287   0.154  1.00  0.00    -0.004 C 
HETATM    6  C   LIG     1      -2.286   0.856   0.448  1.00  0.00     0.005 C 
ENDBRANCH   4   5
ENDBRANCH   3   4
TORSDOF 2
