MODEL 1
REMARK VINA RESULT:      -6.6      0.000      0.000
REMARK  7 active torsions:
REMARK  status: ('A' for Active; 'I' for Inactive)
REMARK    1  A    between atoms: C_2  and  C_3 
REMARK    2  A    between atoms: C_3  and  C_4 
REMARK    3  A    between atoms: C_4  and  C_5 
REMARK    4  A    between atoms: C_5  and  C_6 
REMARK    5  A    between atoms: C_6  and  C_7 
REMARK    6  A    between atoms: C_7  and  C_8 
REMARK    7  A    between atoms: C_8  and  C_9 
ROOT
HETATM    1  C   LIG     1      17.247  38.873  22.982  1.00  0.00     0.000 C 
ENDROOT
BRANCH   1   2
HETATM    2  C   LIG     1      17.793  38.364  21.640  1.00  0.00     0.007 C 
BRANCH   2   3
HETATM    3  C   LIG     1      18.769  39.374  21.027  1.00  0.00     0.077 C 
BRANCH   3   4
HETATM    4  C   LIG     1      19.566  38.741  19.917  1.00  0.00     0.123 C 
HETATM    5  C   LIG     1      19.359  37.307  19.525  1.00  0.00     0.091 C 
HETATM    6  O   LIG     1      20.405  39.403  19.326  1.00  0.00    -0.298 OA
ENDBRANCH   3   4
ENDBRANCH   2   3
ENDBRANCH   1   2
BRANCH   1   7
HETATM    7  C   LIG     1      16.790  37.732  23.907  1.00  0.00     0.000 C 
BRANCH   7   8
HETATM    8  C   LIG     1      17.251  37.927  25.362  1.00  0.00     0.000 C 
BRANCH   8   9
HETATM    9  C   LIG     1      18.548  37.148  25.671  1.00  0.00    -0.000 C 
BRANCH   9  10
HETATM   10  C   LIG     1      18.358  36.027  26.706  1.00  0.00    -0.005 C 
HETATM   11  C   LIG     1      17.580  34.832  26.159  1.00  0.00     0.005 C 
ENDBRANCH   9  10
ENDBRANCH   8   9
ENDBRANCH   7   8
ENDBRANCH   1   7
TORSDOF 7
ENDMDL
MODEL 2
REMARK VINA RESULT:      -6.0      2.792      3.244
REMARK  7 active torsions:
REMARK  status: ('A' for Active; 'I' for Inactive)
REMARK    1  A    between atoms: C_2  and  C_3 
REMARK    2  A    between atoms: C_3  and  C_4 
REMARK    3  A    between atoms: C_4  and  C_5 
REMARK    4  A    between atoms: C_5  and  C_6 
REMARK    5  A    between atoms: C_6  and  C_7 
REMARK    6  A    between atoms: C_7  and  C_8 
REMARK    7  A    between atoms: C_8  and  C_9 
ROOT
HETATM    1  C   LIG     1      17.505  38.030  22.525  1.00  0.00     0.000 C 
ENDROOT
BRANCH   1   2
HETATM    2  C   LIG     1      16.475  36.902  22.371  1.00  0.00     0.007 C 
BRANCH   2   3
HETATM    3  C   LIG     1      17.113  35.660  21.739  1.00  0.00     0.077 C 
BRANCH   3   4
HETATM    4  C   LIG     1      16.174  35.026  20.745  1.00  0.00     0.123 C 
HETATM    5  C   LIG     1      15.060  34.124  21.187  1.00  0.00     0.091 C 
HETATM    6  O   LIG     1      16.326  35.242  19.553  1.00  0.00    -0.298 OA
ENDBRANCH   3   4
ENDBRANCH   2   3
ENDBRANCH   1   2
BRANCH   1   7
HETATM    7  C   LIG     1      17.615  38.540  23.971  1.00  0.00     0.000 C 
BRANCH   7   8
HETATM    8  C   LIG     1      17.266  37.458  25.010  1.00  0.00     0.000 C 
BRANCH   8   9
HETATM    9  C   LIG     1      18.468  37.108  25.912  1.00  0.00    -0.000 C 
BRANCH   9  10
HETATM   10  C   LIG     1      18.352  35.728  26.582  1.00  0.00    -0.005 C 
HETATM   11  C   LIG     1      17.385  34.792  25.860  1.00  0.00     0.005 C 
ENDBRANCH   9  10
ENDBRANCH   8   9
ENDBRANCH   7   8
ENDBRANCH   1   7
TORSDOF 7
ENDMDL
MODEL 3
REMARK VINA RESULT:      -5.9      2.749      5.843
REMARK  7 active torsions:
REMARK  status: ('A' for Active; 'I' for Inactive)
REMARK    1  A    between atoms: C_2  and  C_3 
REMARK    2  A    between atoms: C_3  and  C_4 
REMARK    3  A    between atoms: C_4  and  C_5 
REMARK    4  A    between atoms: C_5  and  C_6 
REMARK    5  A    between atoms: C_6  and  C_7 
REMARK    6  A    between atoms: C_7  and  C_8 
REMARK    7  A    between atoms: C_8  and  C_9 
ROOT
HETATM    1  C   LIG     1      16.591  36.408  22.148  1.00  0.00     0.000 C 
ENDROOT
BRANCH   1   2
HETATM    2  C   LIG     1      17.024  35.777  23.480  1.00  0.00     0.007 C 
BRANCH   2   3
HETATM    3  C   LIG     1      17.324  36.857  24.525  1.00  0.00     0.077 C 
BRANCH   3   4
HETATM    4  C   LIG     1      17.901  36.244  25.775  1.00  0.00     0.123 C 
HETATM    5  C   LIG     1      17.649  34.809  26.130  1.00  0.00     0.091 C 
HETATM    6  O   LIG     1      18.581  36.931  26.521  1.00  0.00    -0.298 OA
ENDBRANCH   3   4
ENDBRANCH   2   3
ENDBRANCH   1   2
BRANCH   1   7
HETATM    7  C   LIG     1      17.383  35.862  20.949  1.00  0.00     0.000 C 
BRANCH   7   8
HETATM    8  C   LIG     1      18.288  36.925  20.301  1.00  0.00     0.000 C 
BRANCH   8   9
HETATM    9  C   LIG     1      18.216  38.279  21.040  1.00  0.00    -0.000 C 
BRANCH   9  10
HETATM   10  C   LIG     1      19.177  39.338  20.476  1.00  0.00    -0.005 C 
HETATM   11  C   LIG     1      20.235  38.751  19.545  1.00  0.00     0.005 C 
ENDBRANCH   9  10
ENDBRANCH   8   9
ENDBRANCH   7   8
ENDBRANCH   1   7
TORSDOF 7
ENDMDL
MODEL 4
REMARK VINA RESULT:      -5.8      1.539      2.302
REMARK  7 active torsions:
REMARK  status: ('A' for Active; 'I' for Inactive)
REMARK    1  A    between atoms: C_2  and  C_3 
REMARK    2  A    between atoms: C_3  and  C_4 
REMARK    3  A    between atoms: C_4  and  C_5 
REMARK    4  A    between atoms: C_5  and  C_6 
REMARK    5  A    between atoms: C_6  and  C_7 
REMARK    6  A    between atoms: C_7  and  C_8 
REMARK    7  A    between atoms: C_8  and  C_9 
ROOT
HETATM    1  C   LIG     1      17.438  35.488  21.386  1.00  0.00     0.000 C 
ENDROOT
BRANCH   1   2
HETATM    2  C   LIG     1      17.553  36.988  21.077  1.00  0.00     0.007 C 
BRANCH   2   3
HETATM    3  C   LIG     1      18.704  37.260  20.102  1.00  0.00     0.077 C 
BRANCH   3   4
HETATM    4  C   LIG     1      19.108  38.710  20.144  1.00  0.00     0.123 C 
HETATM    5  C   LIG     1      18.752  39.587  21.308  1.00  0.00     0.091 C 
HETATM    6  O   LIG     1      19.732  39.188  19.209  1.00  0.00    -0.298 OA
ENDBRANCH   3   4
ENDBRANCH   2   3
ENDBRANCH   1   2
BRANCH   1   7
HETATM    7  C   LIG     1      16.609  35.205  22.649  1.00  0.00     0.000 C 
BRANCH   7   8
HETATM    8  C   LIG     1      17.195  35.874  23.906  1.00  0.00     0.000 C 
BRANCH   8   9
HETATM    9  C   LIG     1      17.388  34.871  25.063  1.00  0.00    -0.000 C 
BRANCH   9  10
HETATM   10  C   LIG     1      18.156  35.455  26.260  1.00  0.00    -0.005 C 
HETATM   11  C   LIG     1      18.535  36.922  26.070  1.00  0.00     0.005 C 
ENDBRANCH   9  10
ENDBRANCH   8   9
ENDBRANCH   7   8
ENDBRANCH   1   7
TORSDOF 7
ENDMDL
MODEL 5
REMARK VINA RESULT:      -5.8      2.518      5.645
REMARK  7 active torsions:
REMARK  status: ('A' for Active; 'I' for Inactive)
REMARK    1  A    between atoms: C_2  and  C_3 
REMARK    2  A    between atoms: C_3  and  C_4 
REMARK    3  A    between atoms: C_4  and  C_5 
REMARK    4  A    between atoms: C_5  and  C_6 
REMARK    5  A    between atoms: C_6  and  C_7 
REMARK    6  A    between atoms: C_7  and  C_8 
REMARK    7  A    between atoms: C_8  and  C_9 
ROOT
HETATM    1  C   LIG     1      17.076  37.708  22.373  1.00  0.00     0.000 C 
ENDROOT
BRANCH   1   2
HETATM    2  C   LIG     1      16.853  36.730  23.536  1.00  0.00     0.007 C 
BRANCH   2   3
HETATM    3  C   LIG     1      17.206  37.384  24.877  1.00  0.00     0.077 C 
BRANCH   3   4
HETATM    4  C   LIG     1      17.866  36.391  25.798  1.00  0.00     0.123 C 
HETATM    5  C   LIG     1      17.470  34.944  25.800  1.00  0.00     0.091 C 
HETATM    6  O   LIG     1      18.735  36.770  26.567  1.00  0.00    -0.298 OA
ENDBRANCH   3   4
ENDBRANCH   2   3
ENDBRANCH   1   2
BRANCH   1   7
HETATM    7  C   LIG     1      17.971  38.896  22.760  1.00  0.00     0.000 C 
BRANCH   7   8
HETATM    8  C   LIG     1      19.026  39.218  21.686  1.00  0.00     0.000 C 
BRANCH   8   9
HETATM    9  C   LIG     1      18.447  39.136  20.258  1.00  0.00    -0.000 C 
BRANCH   9  10
HETATM   10  C   LIG     1      19.310  38.310  19.291  1.00  0.00    -0.005 C 
HETATM   11  C   LIG     1      19.283  36.813  19.594  1.00  0.00     0.005 C 
ENDBRANCH   9  10
ENDBRANCH   8   9
ENDBRANCH   7   8
ENDBRANCH   1   7
TORSDOF 7
ENDMDL
MODEL 6
REMARK VINA RESULT:      -5.6      4.394      6.011
REMARK  7 active torsions:
REMARK  status: ('A' for Active; 'I' for Inactive)
REMARK    1  A    between atoms: C_2  and  C_3 
REMARK    2  A    between atoms: C_3  and  C_4 
REMARK    3  A    between atoms: C_4  and  C_5 
REMARK    4  A    between atoms: C_5  and  C_6 
REMARK    5  A    between atoms: C_6  and  C_7 
REMARK    6  A    between atoms: C_7  and  C_8 
REMARK    7  A    between atoms: C_8  and  C_9 
ROOT
HETATM    1  C   LIG     1      16.578  34.864  22.736  1.00  0.00     0.000 C 
ENDROOT
BRANCH   1   2
HETATM    2  C   LIG     1      17.276  35.499  23.947  1.00  0.00     0.007 C 
BRANCH   2   3
HETATM    3  C   LIG     1      17.069  37.018  23.964  1.00  0.00     0.077 C 
BRANCH   3   4
HETATM    4  C   LIG     1      17.505  37.601  25.283  1.00  0.00     0.123 C 
HETATM    5  C   LIG     1      18.420  36.851  26.205  1.00  0.00     0.091 C 
HETATM    6  O   LIG     1      17.101  38.705  25.615  1.00  0.00    -0.298 OA
ENDBRANCH   3   4
ENDBRANCH   2   3
ENDBRANCH   1   2
BRANCH   1   7
HETATM    7  C   LIG     1      16.771  35.677  21.446  1.00  0.00     0.000 C 
BRANCH   7   8
HETATM    8  C   LIG     1      15.966  35.113  20.262  1.00  0.00     0.000 C 
BRANCH   8   9
HETATM    9  C   LIG     1      15.222  33.812  20.631  1.00  0.00    -0.000 C 
BRANCH   9  10
HETATM   10  C   LIG     1      15.508  32.647  19.669  1.00  0.00    -0.005 C 
HETATM   11  C   LIG     1      14.838  31.342  20.093  1.00  0.00     0.005 C 
ENDBRANCH   9  10
ENDBRANCH   8   9
ENDBRANCH   7   8
ENDBRANCH   1   7
TORSDOF 7
ENDMDL
MODEL 7
REMARK VINA RESULT:      -5.3      4.116      5.379
REMARK  7 active torsions:
REMARK  status: ('A' for Active; 'I' for Inactive)
REMARK    1  A    between atoms: C_2  and  C_3 
REMARK    2  A    between atoms: C_3  and  C_4 
REMARK    3  A    between atoms: C_4  and  C_5 
REMARK    4  A    between atoms: C_5  and  C_6 
REMARK    5  A    between atoms: C_6  and  C_7 
REMARK    6  A    between atoms: C_7  and  C_8 
REMARK    7  A    between atoms: C_8  and  C_9 
ROOT
HETATM    1  C   LIG     1      16.770  35.524  22.505  1.00  0.00     0.000 C 
ENDROOT
BRANCH   1   2
HETATM    2  C   LIG     1      15.712  35.834  21.437  1.00  0.00     0.007 C 
BRANCH   2   3
HETATM    3  C   LIG     1      15.838  34.878  20.246  1.00  0.00     0.077 C 
BRANCH   3   4
HETATM    4  C   LIG     1      15.190  33.553  20.555  1.00  0.00     0.123 C 
HETATM    5  C   LIG     1      15.512  32.321  19.761  1.00  0.00     0.091 C 
HETATM    6  O   LIG     1      14.379  33.479  21.465  1.00  0.00    -0.298 OA
ENDBRANCH   3   4
ENDBRANCH   2   3
ENDBRANCH   1   2
BRANCH   1   7
HETATM    7  C   LIG     1      17.198  36.770  23.296  1.00  0.00     0.000 C 
BRANCH   7   8
HETATM    8  C   LIG     1      16.210  37.941  23.139  1.00  0.00     0.000 C 
BRANCH   8   9
HETATM    9  C   LIG     1      16.869  39.176  22.489  1.00  0.00    -0.000 C 
BRANCH   9  10
HETATM   10  C   LIG     1      18.358  38.976  22.162  1.00  0.00    -0.005 C 
HETATM   11  C   LIG     1      18.685  39.212  20.689  1.00  0.00     0.005 C 
ENDBRANCH   9  10
ENDBRANCH   8   9
ENDBRANCH   7   8
ENDBRANCH   1   7
TORSDOF 7
ENDMDL
MODEL 8
REMARK VINA RESULT:      -5.1      4.985      6.642
REMARK  7 active torsions:
REMARK  status: ('A' for Active; 'I' for Inactive)
REMARK    1  A    between atoms: C_2  and  C_3 
REMARK    2  A    between atoms: C_3  and  C_4 
REMARK    3  A    between atoms: C_4  and  C_5 
REMARK    4  A    between atoms: C_5  and  C_6 
REMARK    5  A    between atoms: C_6  and  C_7 
REMARK    6  A    between atoms: C_7  and  C_8 
REMARK    7  A    between atoms: C_8  and  C_9 
ROOT
HETATM    1  C   LIG     1      15.401  35.698  21.264  1.00  0.00     0.000 C 
ENDROOT
BRANCH   1   2
HETATM    2  C   LIG     1      16.658  36.166  22.012  1.00  0.00     0.007 C 
BRANCH   2   3
HETATM    3  C   LIG     1      16.386  37.461  22.784  1.00  0.00     0.077 C 
BRANCH   3   4
HETATM    4  C   LIG     1      16.786  37.316  24.229  1.00  0.00     0.123 C 
HETATM    5  C   LIG     1      17.348  36.030  24.759  1.00  0.00     0.091 C 
HETATM    6  O   LIG     1      16.643  38.260  24.990  1.00  0.00    -0.298 OA
ENDBRANCH   3   4
ENDBRANCH   2   3
ENDBRANCH   1   2
BRANCH   1   7
HETATM    7  C   LIG     1      15.701  34.610  20.221  1.00  0.00     0.000 C 
BRANCH   7   8
HETATM    8  C   LIG     1      15.157  33.229  20.630  1.00  0.00     0.000 C 
BRANCH   8   9
HETATM    9  C   LIG     1      15.364  32.171  19.526  1.00  0.00    -0.000 C 
BRANCH   9  10
HETATM   10  C   LIG     1      15.046  32.688  18.113  1.00  0.00    -0.005 C 
HETATM   11  C   LIG     1      14.087  31.782  17.345  1.00  0.00     0.005 C 
ENDBRANCH   9  10
ENDBRANCH   8   9
ENDBRANCH   7   8
ENDBRANCH   1   7
TORSDOF 7
ENDMDL
MODEL 9
REMARK VINA RESULT:      -5.1      4.938      5.447
REMARK  7 active torsions:
REMARK  status: ('A' for Active; 'I' for Inactive)
REMARK    1  A    between atoms: C_2  and  C_3 
REMARK    2  A    between atoms: C_3  and  C_4 
REMARK    3  A    between atoms: C_4  and  C_5 
REMARK    4  A    between atoms: C_5  and  C_6 
REMARK    5  A    between atoms: C_6  and  C_7 
REMARK    6  A    between atoms: C_7  and  C_8 
REMARK    7  A    between atoms: C_8  and  C_9 
ROOT
HETATM    1  C   LIG     1      16.625  35.454  20.735  1.00  0.00     0.000 C 
ENDROOT
BRANCH   1   2
HETATM    2  C   LIG     1      15.667  34.738  19.771  1.00  0.00     0.007 C 
BRANCH   2   3
HETATM    3  C   LIG     1      15.485  33.269  20.171  1.00  0.00     0.077 C 
BRANCH   3   4
HETATM    4  C   LIG     1      14.966  32.461  19.010  1.00  0.00     0.123 C 
HETATM    5  C   LIG     1      14.983  33.001  17.611  1.00  0.00     0.091 C 
HETATM    6  O   LIG     1      14.513  31.345  19.211  1.00  0.00    -0.298 OA
ENDBRANCH   3   4
ENDBRANCH   2   3
ENDBRANCH   1   2
BRANCH   1   7
HETATM    7  C   LIG     1      16.732  34.750  22.097  1.00  0.00     0.000 C 
BRANCH   7   8
HETATM    8  C   LIG     1      17.141  35.709  23.230  1.00  0.00     0.000 C 
BRANCH   8   9
HETATM    9  C   LIG     1      17.079  35.033  24.616  1.00  0.00    -0.000 C 
BRANCH   9  10
HETATM   10  C   LIG     1      17.911  35.754  25.689  1.00  0.00    -0.005 C 
HETATM   11  C   LIG     1      17.689  37.265  25.702  1.00  0.00     0.005 C 
ENDBRANCH   9  10
ENDBRANCH   8   9
ENDBRANCH   7   8
ENDBRANCH   1   7
TORSDOF 7
ENDMDL
MODEL 10
REMARK VINA RESULT:      -5.1      4.732      6.036
REMARK  7 active torsions:
REMARK  status: ('A' for Active; 'I' for Inactive)
REMARK    1  A    between atoms: C_2  and  C_3 
REMARK    2  A    between atoms: C_3  and  C_4 
REMARK    3  A    between atoms: C_4  and  C_5 
REMARK    4  A    between atoms: C_5  and  C_6 
REMARK    5  A    between atoms: C_6  and  C_7 
REMARK    6  A    between atoms: C_7  and  C_8 
REMARK    7  A    between atoms: C_8  and  C_9 
ROOT
HETATM    1  C   LIG     1      15.434  35.614  21.407  1.00  0.00     0.000 C 
ENDROOT
BRANCH   1   2
HETATM    2  C   LIG     1      16.950  35.682  21.643  1.00  0.00     0.007 C 
BRANCH   2   3
HETATM    3  C   LIG     1      17.468  37.114  21.466  1.00  0.00     0.077 C 
BRANCH   3   4
HETATM    4  C   LIG     1      18.339  37.219  20.242  1.00  0.00     0.123 C 
HETATM    5  C   LIG     1      19.280  38.371  20.049  1.00  0.00     0.091 C 
HETATM    6  O   LIG     1      18.275  36.353  19.383  1.00  0.00    -0.298 OA
ENDBRANCH   3   4
ENDBRANCH   2   3
ENDBRANCH   1   2
BRANCH   1   7
HETATM    7  C   LIG     1      14.929  34.175  21.208  1.00  0.00     0.000 C 
BRANCH   7   8
HETATM    8  C   LIG     1      15.802  33.371  20.228  1.00  0.00     0.000 C 
BRANCH   8   9
HETATM    9  C   LIG     1      14.998  32.275  19.497  1.00  0.00    -0.000 C 
BRANCH   9  10
HETATM   10  C   LIG     1      15.040  32.402  17.965  1.00  0.00    -0.005 C 
HETATM   11  C   LIG     1      13.932  31.615  17.269  1.00  0.00     0.005 C 
ENDBRANCH   9  10
ENDBRANCH   8   9
ENDBRANCH   7   8
ENDBRANCH   1   7
TORSDOF 7
ENDMDL
MODEL 11
REMARK VINA RESULT:      -5.0     10.166     11.531
REMARK  7 active torsions:
REMARK  status: ('A' for Active; 'I' for Inactive)
REMARK    1  A    between atoms: C_2  and  C_3 
REMARK    2  A    between atoms: C_3  and  C_4 
REMARK    3  A    between atoms: C_4  and  C_5 
REMARK    4  A    between atoms: C_5  and  C_6 
REMARK    5  A    between atoms: C_6  and  C_7 
REMARK    6  A    between atoms: C_7  and  C_8 
REMARK    7  A    between atoms: C_8  and  C_9 
ROOT
HETATM    1  C   LIG     1      14.941  31.145  15.300  1.00  0.00     0.000 C 
ENDROOT
BRANCH   1   2
HETATM    2  C   LIG     1      14.789  30.132  14.155  1.00  0.00     0.007 C 
BRANCH   2   3
HETATM    3  C   LIG     1      13.471  29.361  14.278  1.00  0.00     0.077 C 
BRANCH   3   4
HETATM    4  C   LIG     1      13.657  27.920  13.879  1.00  0.00     0.123 C 
HETATM    5  C   LIG     1      15.002  27.385  13.487  1.00  0.00     0.091 C 
HETATM    6  O   LIG     1      12.692  27.171  13.867  1.00  0.00    -0.298 OA
ENDBRANCH   3   4
ENDBRANCH   2   3
ENDBRANCH   1   2
BRANCH   1   7
HETATM    7  C   LIG     1      13.637  31.347  16.090  1.00  0.00     0.000 C 
BRANCH   7   8
HETATM    8  C   LIG     1      13.872  31.442  17.608  1.00  0.00     0.000 C 
BRANCH   8   9
HETATM    9  C   LIG     1      14.996  32.439  17.962  1.00  0.00    -0.000 C 
BRANCH   9  10
HETATM   10  C   LIG     1      15.405  32.403  19.444  1.00  0.00    -0.005 C 
HETATM   11  C   LIG     1      14.883  31.170  20.179  1.00  0.00     0.005 C 
ENDBRANCH   9  10
ENDBRANCH   8   9
ENDBRANCH   7   8
ENDBRANCH   1   7
TORSDOF 7
ENDMDL
MODEL 12
REMARK VINA RESULT:      -4.9      6.865      7.946
REMARK  7 active torsions:
REMARK  status: ('A' for Active; 'I' for Inactive)
REMARK    1  A    between atoms: C_2  and  C_3 
REMARK    2  A    between atoms: C_3  and  C_4 
REMARK    3  A    between atoms: C_4  and  C_5 
REMARK    4  A    between atoms: C_5  and  C_6 
REMARK    5  A    between atoms: C_6  and  C_7 
REMARK    6  A    between atoms: C_7  and  C_8 
REMARK    7  A    between atoms: C_8  and  C_9 
ROOT
HETATM    1  C   LIG     1      15.366  32.273  19.158  1.00  0.00     0.000 C 
ENDROOT
BRANCH   1   2
HETATM    2  C   LIG     1      14.863  32.965  17.882  1.00  0.00     0.007 C 
BRANCH   2   3
HETATM    3  C   LIG     1      14.963  32.027  16.674  1.00  0.00     0.077 C 
BRANCH   3   4
HETATM    4  C   LIG     1      13.641  31.356  16.409  1.00  0.00     0.123 C 
HETATM    5  C   LIG     1      13.480  30.355  15.303  1.00  0.00     0.091 C 
HETATM    6  O   LIG     1      12.675  31.636  17.102  1.00  0.00    -0.298 OA
ENDBRANCH   3   4
ENDBRANCH   2   3
ENDBRANCH   1   2
BRANCH   1   7
HETATM    7  C   LIG     1      15.181  33.139  20.415  1.00  0.00     0.000 C 
BRANCH   7   8
HETATM    8  C   LIG     1      15.866  34.513  20.295  1.00  0.00     0.000 C 
BRANCH   8   9
HETATM    9  C   LIG     1      16.461  34.986  21.638  1.00  0.00    -0.000 C 
BRANCH   9  10
HETATM   10  C   LIG     1      17.148  36.359  21.555  1.00  0.00    -0.005 C 
HETATM   11  C   LIG     1      18.017  36.521  20.310  1.00  0.00     0.005 C 
ENDBRANCH   9  10
ENDBRANCH   8   9
ENDBRANCH   7   8
ENDBRANCH   1   7
TORSDOF 7
ENDMDL
MODEL 13
REMARK VINA RESULT:      -4.9      9.299     11.622
REMARK  7 active torsions:
REMARK  status: ('A' for Active; 'I' for Inactive)
REMARK    1  A    between atoms: C_2  and  C_3 
REMARK    2  A    between atoms: C_3  and  C_4 
REMARK    3  A    between atoms: C_4  and  C_5 
REMARK    4  A    between atoms: C_5  and  C_6 
REMARK    5  A    between atoms: C_6  and  C_7 
REMARK    6  A    between atoms: C_7  and  C_8 
REMARK    7  A    between atoms: C_8  and  C_9 
ROOT
HETATM    1  C   LIG     1      15.179  31.674  15.196  1.00  0.00     0.000 C 
ENDROOT
BRANCH   1   2
HETATM    2  C   LIG     1      15.711  32.330  16.478  1.00  0.00     0.007 C 
BRANCH   2   3
HETATM    3  C   LIG     1      14.574  32.593  17.471  1.00  0.00     0.077 C 
BRANCH   3   4
HETATM    4  C   LIG     1      15.099  32.650  18.882  1.00  0.00     0.123 C 
HETATM    5  C   LIG     1      14.916  31.504  19.832  1.00  0.00     0.091 C 
HETATM    6  O   LIG     1      15.680  33.654  19.266  1.00  0.00    -0.298 OA
ENDBRANCH   3   4
ENDBRANCH   2   3
ENDBRANCH   1   2
BRANCH   1   7
HETATM    7  C   LIG     1      14.139  30.578  15.477  1.00  0.00     0.000 C 
BRANCH   7   8
HETATM    8  C   LIG     1      13.972  29.601  14.299  1.00  0.00     0.000 C 
BRANCH   8   9
HETATM    9  C   LIG     1      15.327  29.074  13.783  1.00  0.00    -0.000 C 
BRANCH   9  10
HETATM   10  C   LIG     1      15.360  27.549  13.591  1.00  0.00    -0.005 C 
HETATM   11  C   LIG     1      15.863  27.129  12.212  1.00  0.00     0.005 C 
ENDBRANCH   9  10
ENDBRANCH   8   9
ENDBRANCH   7   8
ENDBRANCH   1   7
TORSDOF 7
ENDMDL
MODEL 14
REMARK VINA RESULT:      -4.7      5.768      7.144
REMARK  7 active torsions:
REMARK  status: ('A' for Active; 'I' for Inactive)
REMARK    1  A    between atoms: C_2  and  C_3 
REMARK    2  A    between atoms: C_3  and  C_4 
REMARK    3  A    between atoms: C_4  and  C_5 
REMARK    4  A    between atoms: C_5  and  C_6 
REMARK    5  A    between atoms: C_6  and  C_7 
REMARK    6  A    between atoms: C_7  and  C_8 
REMARK    7  A    between atoms: C_8  and  C_9 
ROOT
HETATM    1  C   LIG     1      15.358  33.993  20.167  1.00  0.00     0.000 C 
ENDROOT
BRANCH   1   2
HETATM    2  C   LIG     1      15.834  32.576  19.812  1.00  0.00     0.007 C 
BRANCH   2   3
HETATM    3  C   LIG     1      14.653  31.690  19.401  1.00  0.00     0.077 C 
BRANCH   3   4
HETATM    4  C   LIG     1      14.332  31.873  17.940  1.00  0.00     0.123 C 
HETATM    5  C   LIG     1      15.264  32.604  17.020  1.00  0.00     0.091 C 
HETATM    6  O   LIG     1      13.287  31.424  17.494  1.00  0.00    -0.298 OA
ENDBRANCH   3   4
ENDBRANCH   2   3
ENDBRANCH   1   2
BRANCH   1   7
HETATM    7  C   LIG     1      16.118  34.591  21.362  1.00  0.00     0.000 C 
BRANCH   7   8
HETATM    8  C   LIG     1      16.429  36.088  21.179  1.00  0.00     0.000 C 
BRANCH   8   9
HETATM    9  C   LIG     1      17.946  36.361  21.093  1.00  0.00    -0.000 C 
BRANCH   9  10
HETATM   10  C   LIG     1      18.429  36.703  19.674  1.00  0.00    -0.005 C 
HETATM   11  C   LIG     1      19.331  37.935  19.629  1.00  0.00     0.005 C 
ENDBRANCH   9  10
ENDBRANCH   8   9
ENDBRANCH   7   8
ENDBRANCH   1   7
TORSDOF 7
ENDMDL
MODEL 15
REMARK VINA RESULT:      -4.7      9.494     11.580
REMARK  7 active torsions:
REMARK  status: ('A' for Active; 'I' for Inactive)
REMARK    1  A    between atoms: C_2  and  C_3 
REMARK    2  A    between atoms: C_3  and  C_4 
REMARK    3  A    between atoms: C_4  and  C_5 
REMARK    4  A    between atoms: C_5  and  C_6 
REMARK    5  A    between atoms: C_6  and  C_7 
REMARK    6  A    between atoms: C_7  and  C_8 
REMARK    7  A    between atoms: C_8  and  C_9 
ROOT
HETATM    1  C   LIG     1      16.997  32.932  15.038  1.00  0.00     0.000 C 
ENDROOT
BRANCH   1   2
HETATM    2  C   LIG     1      15.698  32.145  15.264  1.00  0.00     0.007 C 
BRANCH   2   3
HETATM    3  C   LIG     1      15.009  32.585  16.559  1.00  0.00     0.077 C 
BRANCH   3   4
HETATM    4  C   LIG     1      14.044  31.531  17.036  1.00  0.00     0.123 C 
HETATM    5  C   LIG     1      13.173  30.777  16.075  1.00  0.00     0.091 C 
HETATM    6  O   LIG     1      13.961  31.288  18.230  1.00  0.00    -0.298 OA
ENDBRANCH   3   4
ENDBRANCH   2   3
ENDBRANCH   1   2
BRANCH   1   7
HETATM    7  C   LIG     1      17.307  33.150  13.548  1.00  0.00     0.000 C 
BRANCH   7   8
HETATM    8  C   LIG     1      18.641  33.884  13.321  1.00  0.00     0.000 C 
BRANCH   8   9
HETATM    9  C   LIG     1      19.248  33.572  11.936  1.00  0.00    -0.000 C 
BRANCH   9  10
HETATM   10  C   LIG     1      20.772  33.371  11.966  1.00  0.00    -0.005 C 
HETATM   11  C   LIG     1      21.510  34.483  12.708  1.00  0.00     0.005 C 
ENDBRANCH   9  10
ENDBRANCH   8   9
ENDBRANCH   7   8
ENDBRANCH   1   7
TORSDOF 7
ENDMDL
MODEL 16
REMARK VINA RESULT:      -4.7      8.384      9.587
REMARK  7 active torsions:
REMARK  status: ('A' for Active; 'I' for Inactive)
REMARK    1  A    between atoms: C_2  and  C_3 
REMARK    2  A    between atoms: C_3  and  C_4 
REMARK    3  A    between atoms: C_4  and  C_5 
REMARK    4  A    between atoms: C_5  and  C_6 
REMARK    5  A    between atoms: C_6  and  C_7 
REMARK    6  A    between atoms: C_7  and  C_8 
REMARK    7  A    between atoms: C_8  and  C_9 
ROOT
HETATM    1  C   LIG     1      13.762  31.784  16.880  1.00  0.00     0.000 C 
ENDROOT
BRANCH   1   2
HETATM    2  C   LIG     1      13.478  30.407  16.262  1.00  0.00     0.007 C 
BRANCH   2   3
HETATM    3  C   LIG     1      13.692  30.434  14.745  1.00  0.00     0.077 C 
BRANCH   3   4
HETATM    4  C   LIG     1      15.057  29.905  14.389  1.00  0.00     0.123 C 
HETATM    5  C   LIG     1      15.246  28.508  13.877  1.00  0.00     0.091 C 
HETATM    6  O   LIG     1      16.034  30.625  14.526  1.00  0.00    -0.298 OA
ENDBRANCH   3   4
ENDBRANCH   2   3
ENDBRANCH   1   2
BRANCH   1   7
HETATM    7  C   LIG     1      14.447  31.687  18.254  1.00  0.00     0.000 C 
BRANCH   7   8
HETATM    8  C   LIG     1      15.151  32.995  18.659  1.00  0.00     0.000 C 
BRANCH   8   9
HETATM    9  C   LIG     1      15.342  33.104  20.187  1.00  0.00    -0.000 C 
BRANCH   9  10
HETATM   10  C   LIG     1      15.993  34.424  20.631  1.00  0.00    -0.005 C 
HETATM   11  C   LIG     1      14.992  35.417  21.219  1.00  0.00     0.005 C 
ENDBRANCH   9  10
ENDBRANCH   8   9
ENDBRANCH   7   8
ENDBRANCH   1   7
TORSDOF 7
ENDMDL
MODEL 17
REMARK VINA RESULT:      -4.6      5.785      6.910
REMARK  7 active torsions:
REMARK  status: ('A' for Active; 'I' for Inactive)
REMARK    1  A    between atoms: C_2  and  C_3 
REMARK    2  A    between atoms: C_3  and  C_4 
REMARK    3  A    between atoms: C_4  and  C_5 
REMARK    4  A    between atoms: C_5  and  C_6 
REMARK    5  A    between atoms: C_6  and  C_7 
REMARK    6  A    between atoms: C_7  and  C_8 
REMARK    7  A    between atoms: C_8  and  C_9 
ROOT
HETATM    1  C   LIG     1      15.418  32.490  19.331  1.00  0.00     0.000 C 
ENDROOT
BRANCH   1   2
HETATM    2  C   LIG     1      14.973  33.192  18.038  1.00  0.00     0.007 C 
BRANCH   2   3
HETATM    3  C   LIG     1      15.004  32.223  16.851  1.00  0.00     0.077 C 
BRANCH   3   4
HETATM    4  C   LIG     1      15.808  32.798  15.714  1.00  0.00     0.123 C 
HETATM    5  C   LIG     1      16.063  32.013  14.462  1.00  0.00     0.091 C 
HETATM    6  O   LIG     1      16.271  33.924  15.815  1.00  0.00    -0.298 OA
ENDBRANCH   3   4
ENDBRANCH   2   3
ENDBRANCH   1   2
BRANCH   1   7
HETATM    7  C   LIG     1      15.593  33.467  20.505  1.00  0.00     0.000 C 
BRANCH   7   8
HETATM    8  C   LIG     1      15.715  34.931  20.046  1.00  0.00     0.000 C 
BRANCH   8   9
HETATM    9  C   LIG     1      16.939  35.636  20.668  1.00  0.00    -0.000 C 
BRANCH   9  10
HETATM   10  C   LIG     1      16.765  35.967  22.159  1.00  0.00    -0.005 C 
HETATM   11  C   LIG     1      15.757  37.088  22.410  1.00  0.00     0.005 C 
ENDBRANCH   9  10
ENDBRANCH   8   9
ENDBRANCH   7   8
ENDBRANCH   1   7
TORSDOF 7
ENDMDL
MODEL 18
REMARK VINA RESULT:      -4.6      5.896      6.789
REMARK  7 active torsions:
REMARK  status: ('A' for Active; 'I' for Inactive)
REMARK    1  A    between atoms: C_2  and  C_3 
REMARK    2  A    between atoms: C_3  and  C_4 
REMARK    3  A    between atoms: C_4  and  C_5 
REMARK    4  A    between atoms: C_5  and  C_6 
REMARK    5  A    between atoms: C_6  and  C_7 
REMARK    6  A    between atoms: C_7  and  C_8 
REMARK    7  A    between atoms: C_8  and  C_9 
ROOT
HETATM    1  C   LIG     1      15.400  33.841  19.803  1.00  0.00     0.000 C 
ENDROOT
BRANCH   1   2
HETATM    2  C   LIG     1      15.733  32.349  19.660  1.00  0.00     0.007 C 
BRANCH   2   3
HETATM    3  C   LIG     1      14.529  31.568  19.122  1.00  0.00     0.077 C 
BRANCH   3   4
HETATM    4  C   LIG     1      14.255  31.933  17.686  1.00  0.00     0.123 C 
HETATM    5  C   LIG     1      15.349  32.410  16.777  1.00  0.00     0.091 C 
HETATM    6  O   LIG     1      13.116  31.849  17.252  1.00  0.00    -0.298 OA
ENDBRANCH   3   4
ENDBRANCH   2   3
ENDBRANCH   1   2
BRANCH   1   7
HETATM    7  C   LIG     1      15.430  34.317  21.265  1.00  0.00     0.000 C 
BRANCH   7   8
HETATM    8  C   LIG     1      15.165  35.828  21.402  1.00  0.00     0.000 C 
BRANCH   8   9
HETATM    9  C   LIG     1      16.387  36.584  21.966  1.00  0.00    -0.000 C 
BRANCH   9  10
HETATM   10  C   LIG     1      16.012  37.751  22.894  1.00  0.00    -0.005 C 
HETATM   11  C   LIG     1      16.807  37.758  24.198  1.00  0.00     0.005 C 
ENDBRANCH   9  10
ENDBRANCH   8   9
ENDBRANCH   7   8
ENDBRANCH   1   7
TORSDOF 7
ENDMDL
MODEL 19
REMARK VINA RESULT:      -4.5      9.933     12.409
REMARK  7 active torsions:
REMARK  status: ('A' for Active; 'I' for Inactive)
REMARK    1  A    between atoms: C_2  and  C_3 
REMARK    2  A    between atoms: C_3  and  C_4 
REMARK    3  A    between atoms: C_4  and  C_5 
REMARK    4  A    between atoms: C_5  and  C_6 
REMARK    5  A    between atoms: C_6  and  C_7 
REMARK    6  A    between atoms: C_7  and  C_8 
REMARK    7  A    between atoms: C_8  and  C_9 
ROOT
HETATM    1  C   LIG     1      15.727  30.566  14.040  1.00  0.00     0.000 C 
ENDROOT
BRANCH   1   2
HETATM    2  C   LIG     1      15.911  32.087  14.153  1.00  0.00     0.007 C 
BRANCH   2   3
HETATM    3  C   LIG     1      16.548  32.464  15.495  1.00  0.00     0.077 C 
BRANCH   3   4
HETATM    4  C   LIG     1      15.602  33.300  16.317  1.00  0.00     0.123 C 
HETATM    5  C   LIG     1      14.461  32.681  17.068  1.00  0.00     0.091 C 
HETATM    6  O   LIG     1      15.761  34.510  16.369  1.00  0.00    -0.298 OA
ENDBRANCH   3   4
ENDBRANCH   2   3
ENDBRANCH   1   2
BRANCH   1   7
HETATM    7  C   LIG     1      14.298  30.115  14.384  1.00  0.00     0.000 C 
BRANCH   7   8
HETATM    8  C   LIG     1      14.042  28.638  14.033  1.00  0.00     0.000 C 
BRANCH   8   9
HETATM    9  C   LIG     1      15.338  27.901  13.634  1.00  0.00    -0.000 C 
BRANCH   9  10
HETATM   10  C   LIG     1      15.144  26.894  12.488  1.00  0.00    -0.005 C 
HETATM   11  C   LIG     1      16.304  26.885  11.496  1.00  0.00     0.005 C 
ENDBRANCH   9  10
ENDBRANCH   8   9
ENDBRANCH   7   8
ENDBRANCH   1   7
TORSDOF 7
ENDMDL
MODEL 20
REMARK VINA RESULT:      -4.5     10.366     12.079
REMARK  7 active torsions:
REMARK  status: ('A' for Active; 'I' for Inactive)
REMARK    1  A    between atoms: C_2  and  C_3 
REMARK    2  A    between atoms: C_3  and  C_4 
REMARK    3  A    between atoms: C_4  and  C_5 
REMARK    4  A    between atoms: C_5  and  C_6 
REMARK    5  A    between atoms: C_6  and  C_7 
REMARK    6  A    between atoms: C_7  and  C_8 
REMARK    7  A    between atoms: C_8  and  C_9 
ROOT
HETATM    1  C   LIG     1      16.960  32.206  15.282  1.00  0.00     0.000 C 
ENDROOT
BRANCH   1   2
HETATM    2  C   LIG     1      15.629  32.063  14.529  1.00  0.00     0.007 C 
BRANCH   2   3
HETATM    3  C   LIG     1      15.393  30.608  14.107  1.00  0.00     0.077 C 
BRANCH   3   4
HETATM    4  C   LIG     1      14.118  30.078  14.710  1.00  0.00     0.123 C 
HETATM    5  C   LIG     1      13.480  30.740  15.896  1.00  0.00     0.091 C 
HETATM    6  O   LIG     1      13.595  29.084  14.231  1.00  0.00    -0.298 OA
ENDBRANCH   3   4
ENDBRANCH   2   3
ENDBRANCH   1   2
BRANCH   1   7
HETATM    7  C   LIG     1      17.879  33.273  14.665  1.00  0.00     0.000 C 
BRANCH   7   8
HETATM    8  C   LIG     1      17.567  33.538  13.181  1.00  0.00     0.000 C 
BRANCH   8   9
HETATM    9  C   LIG     1      18.801  33.322  12.280  1.00  0.00    -0.000 C 
BRANCH   9  10
HETATM   10  C   LIG     1      19.949  34.304  12.565  1.00  0.00    -0.005 C 
HETATM   11  C   LIG     1      21.296  33.611  12.758  1.00  0.00     0.005 C 
ENDBRANCH   9  10
ENDBRANCH   8   9
ENDBRANCH   7   8
ENDBRANCH   1   7
TORSDOF 7
ENDMDL
