MODEL 1
REMARK VINA RESULT:      -6.1      0.000      0.000
REMARK  0 active torsions:
REMARK  status: ('A' for Active; 'I' for Inactive)
ROOT
HETATM    1 BR   LIG     1      16.939  38.449  22.999  1.00  0.00    -0.049 Br
HETATM    2  C   LIG     1      17.361  37.129  24.322  1.00  0.00     0.032 A 
HETATM    3  C   LIG     1      17.859  37.552  25.561  1.00  0.00     0.021 A 
HETATM    4  C   LIG     1      18.177  36.617  26.549  1.00  0.00     0.001 A 
HETATM    5  C   LIG     1      17.998  35.253  26.303  1.00  0.00     0.002 A 
HETATM    6  C   LIG     1      17.501  34.824  25.070  1.00  0.00     0.025 A 
HETATM    7  C   LIG     1      17.181  35.756  24.075  1.00  0.00     0.051 A 
HETATM    8 CL   LIG     1      16.559  35.177  22.535  1.00  0.00    -0.083 Cl
ENDROOT
TORSDOF 0
ENDMDL
MODEL 2
REMARK VINA RESULT:      -6.1      1.676      2.388
REMARK  0 active torsions:
REMARK  status: ('A' for Active; 'I' for Inactive)
ROOT
HETATM    1 BR   LIG     1      16.569  35.596  22.306  1.00  0.00    -0.049 Br
HETATM    2  C   LIG     1      17.217  35.916  24.081  1.00  0.00     0.032 A 
HETATM    3  C   LIG     1      17.452  34.820  24.920  1.00  0.00     0.021 A 
HETATM    4  C   LIG     1      17.924  35.016  26.220  1.00  0.00     0.001 A 
HETATM    5  C   LIG     1      18.165  36.311  26.688  1.00  0.00     0.002 A 
HETATM    6  C   LIG     1      17.933  37.410  25.856  1.00  0.00     0.025 A 
HETATM    7  C   LIG     1      17.459  37.220  24.552  1.00  0.00     0.051 A 
HETATM    8 CL   LIG     1      17.179  38.627  23.535  1.00  0.00    -0.083 Cl
ENDROOT
TORSDOF 0
ENDMDL
MODEL 3
REMARK VINA RESULT:      -5.7      4.213      5.360
REMARK  0 active torsions:
REMARK  status: ('A' for Active; 'I' for Inactive)
ROOT
HETATM    1 BR   LIG     1      16.785  35.529  21.402  1.00  0.00    -0.049 Br
HETATM    2  C   LIG     1      17.888  37.006  20.879  1.00  0.00     0.032 A 
HETATM    3  C   LIG     1      18.766  36.842  19.800  1.00  0.00     0.021 A 
HETATM    4  C   LIG     1      19.584  37.898  19.392  1.00  0.00     0.001 A 
HETATM    5  C   LIG     1      19.528  39.125  20.060  1.00  0.00     0.002 A 
HETATM    6  C   LIG     1      18.653  39.296  21.136  1.00  0.00     0.025 A 
HETATM    7  C   LIG     1      17.831  38.241  21.551  1.00  0.00     0.051 A 
HETATM    8 CL   LIG     1      16.743  38.494  22.910  1.00  0.00    -0.083 Cl
ENDROOT
TORSDOF 0
ENDMDL
MODEL 4
REMARK VINA RESULT:      -5.7      2.650      3.835
REMARK  0 active torsions:
REMARK  status: ('A' for Active; 'I' for Inactive)
ROOT
HETATM    1 BR   LIG     1      17.819  35.013  26.137  1.00  0.00    -0.049 Br
HETATM    2  C   LIG     1      17.313  35.781  24.455  1.00  0.00     0.032 A 
HETATM    3  C   LIG     1      17.133  34.933  23.355  1.00  0.00     0.021 A 
HETATM    4  C   LIG     1      16.765  35.458  22.114  1.00  0.00     0.001 A 
HETATM    5  C   LIG     1      16.573  36.835  21.967  1.00  0.00     0.002 A 
HETATM    6  C   LIG     1      16.750  37.686  23.061  1.00  0.00     0.025 A 
HETATM    7  C   LIG     1      17.120  37.166  24.308  1.00  0.00     0.051 A 
HETATM    8 CL   LIG     1      17.333  38.270  25.660  1.00  0.00    -0.083 Cl
ENDROOT
TORSDOF 0
ENDMDL
MODEL 5
REMARK VINA RESULT:      -5.7      3.855      4.858
REMARK  0 active torsions:
REMARK  status: ('A' for Active; 'I' for Inactive)
ROOT
HETATM    1 BR   LIG     1      16.713  38.128  23.136  1.00  0.00    -0.049 Br
HETATM    2  C   LIG     1      17.848  38.083  21.593  1.00  0.00     0.032 A 
HETATM    3  C   LIG     1      18.598  39.222  21.276  1.00  0.00     0.021 A 
HETATM    4  C   LIG     1      19.436  39.225  20.158  1.00  0.00     0.001 A 
HETATM    5  C   LIG     1      19.529  38.087  19.352  1.00  0.00     0.002 A 
HETATM    6  C   LIG     1      18.785  36.946  19.664  1.00  0.00     0.025 A 
HETATM    7  C   LIG     1      17.942  36.937  20.782  1.00  0.00     0.051 A 
HETATM    8 CL   LIG     1      17.021  35.483  21.141  1.00  0.00    -0.083 Cl
ENDROOT
TORSDOF 0
ENDMDL
MODEL 6
REMARK VINA RESULT:      -5.4      2.115      3.162
REMARK  0 active torsions:
REMARK  status: ('A' for Active; 'I' for Inactive)
ROOT
HETATM    1 BR   LIG     1      17.429  38.079  25.615  1.00  0.00    -0.049 Br
HETATM    2  C   LIG     1      17.250  37.070  23.996  1.00  0.00     0.032 A 
HETATM    3  C   LIG     1      17.199  37.758  22.777  1.00  0.00     0.021 A 
HETATM    4  C   LIG     1      17.069  37.054  21.577  1.00  0.00     0.001 A 
HETATM    5  C   LIG     1      16.991  35.659  21.589  1.00  0.00     0.002 A 
HETATM    6  C   LIG     1      17.042  34.967  22.802  1.00  0.00     0.025 A 
HETATM    7  C   LIG     1      17.171  35.666  24.009  1.00  0.00     0.051 A 
HETATM    8 CL   LIG     1      17.232  34.759  25.514  1.00  0.00    -0.083 Cl
ENDROOT
TORSDOF 0
ENDMDL
MODEL 7
REMARK VINA RESULT:      -5.2      2.047      2.973
REMARK  0 active torsions:
REMARK  status: ('A' for Active; 'I' for Inactive)
ROOT
HETATM    1 BR   LIG     1      17.513  34.958  25.770  1.00  0.00    -0.049 Br
HETATM    2  C   LIG     1      17.347  36.505  24.653  1.00  0.00     0.032 A 
HETATM    3  C   LIG     1      17.559  37.769  25.217  1.00  0.00     0.021 A 
HETATM    4  C   LIG     1      17.446  38.919  24.432  1.00  0.00     0.001 A 
HETATM    5  C   LIG     1      17.122  38.811  23.076  1.00  0.00     0.002 A 
HETATM    6  C   LIG     1      16.911  37.553  22.506  1.00  0.00     0.025 A 
HETATM    7  C   LIG     1      17.021  36.396  23.288  1.00  0.00     0.051 A 
HETATM    8 CL   LIG     1      16.747  34.831  22.535  1.00  0.00    -0.083 Cl
ENDROOT
TORSDOF 0
ENDMDL
MODEL 8
REMARK VINA RESULT:      -5.2      1.982      2.765
REMARK  0 active torsions:
REMARK  status: ('A' for Active; 'I' for Inactive)
ROOT
HETATM    1 BR   LIG     1      16.864  39.134  22.545  1.00  0.00    -0.049 Br
HETATM    2  C   LIG     1      17.026  37.396  23.334  1.00  0.00     0.032 A 
HETATM    3  C   LIG     1      16.921  36.269  22.508  1.00  0.00     0.021 A 
HETATM    4  C   LIG     1      17.034  34.986  23.050  1.00  0.00     0.001 A 
HETATM    5  C   LIG     1      17.254  34.823  24.421  1.00  0.00     0.002 A 
HETATM    6  C   LIG     1      17.361  35.943  25.250  1.00  0.00     0.025 A 
HETATM    7  C   LIG     1      17.247  37.232  24.714  1.00  0.00     0.051 A 
HETATM    8 CL   LIG     1      17.387  38.616  25.789  1.00  0.00    -0.083 Cl
ENDROOT
TORSDOF 0
ENDMDL
MODEL 9
REMARK VINA RESULT:      -5.2      2.638      3.789
REMARK  0 active torsions:
REMARK  status: ('A' for Active; 'I' for Inactive)
ROOT
HETATM    1 BR   LIG     1      17.343  38.001  25.072  1.00  0.00    -0.049 Br
HETATM    2  C   LIG     1      17.251  37.049  23.412  1.00  0.00     0.032 A 
HETATM    3  C   LIG     1      16.866  35.703  23.427  1.00  0.00     0.021 A 
HETATM    4  C   LIG     1      16.789  34.978  22.235  1.00  0.00     0.001 A 
HETATM    5  C   LIG     1      17.095  35.597  21.020  1.00  0.00     0.002 A 
HETATM    6  C   LIG     1      17.479  36.941  20.997  1.00  0.00     0.025 A 
HETATM    7  C   LIG     1      17.560  37.672  22.189  1.00  0.00     0.051 A 
HETATM    8 CL   LIG     1      18.047  39.361  22.119  1.00  0.00    -0.083 Cl
ENDROOT
TORSDOF 0
ENDMDL
MODEL 10
REMARK VINA RESULT:      -5.1      3.591      3.927
REMARK  0 active torsions:
REMARK  status: ('A' for Active; 'I' for Inactive)
ROOT
HETATM    1 BR   LIG     1      18.970  39.558  20.928  1.00  0.00    -0.049 Br
HETATM    2  C   LIG     1      17.860  38.051  21.339  1.00  0.00     0.032 A 
HETATM    3  C   LIG     1      16.868  38.193  22.318  1.00  0.00     0.021 A 
HETATM    4  C   LIG     1      16.041  37.114  22.643  1.00  0.00     0.001 A 
HETATM    5  C   LIG     1      16.201  35.889  21.990  1.00  0.00     0.002 A 
HETATM    6  C   LIG     1      17.188  35.741  21.012  1.00  0.00     0.025 A 
HETATM    7  C   LIG     1      18.022  36.818  20.682  1.00  0.00     0.051 A 
HETATM    8 CL   LIG     1      19.252  36.593  19.446  1.00  0.00    -0.083 Cl
ENDROOT
TORSDOF 0
ENDMDL
MODEL 11
REMARK VINA RESULT:      -5.1      3.446      4.250
REMARK  0 active torsions:
REMARK  status: ('A' for Active; 'I' for Inactive)
ROOT
HETATM    1 BR   LIG     1      18.849  37.005  19.161  1.00  0.00    -0.049 Br
HETATM    2  C   LIG     1      17.956  37.096  20.854  1.00  0.00     0.032 A 
HETATM    3  C   LIG     1      17.291  35.958  21.327  1.00  0.00     0.021 A 
HETATM    4  C   LIG     1      16.630  35.989  22.557  1.00  0.00     0.001 A 
HETATM    5  C   LIG     1      16.631  37.159  23.322  1.00  0.00     0.002 A 
HETATM    6  C   LIG     1      17.294  38.297  22.857  1.00  0.00     0.025 A 
HETATM    7  C   LIG     1      17.958  38.274  21.624  1.00  0.00     0.051 A 
HETATM    8 CL   LIG     1      18.780  39.727  21.073  1.00  0.00    -0.083 Cl
ENDROOT
TORSDOF 0
ENDMDL
MODEL 12
REMARK VINA RESULT:      -5.0     10.058     10.960
REMARK  0 active torsions:
REMARK  status: ('A' for Active; 'I' for Inactive)
ROOT
HETATM    1 BR   LIG     1      17.000  32.663  14.991  1.00  0.00    -0.049 Br
HETATM    2  C   LIG     1      15.323  31.903  15.521  1.00  0.00     0.032 A 
HETATM    3  C   LIG     1      14.671  32.427  16.645  1.00  0.00     0.021 A 
HETATM    4  C   LIG     1      13.447  31.897  17.060  1.00  0.00     0.001 A 
HETATM    5  C   LIG     1      12.867  30.840  16.352  1.00  0.00     0.002 A 
HETATM    6  C   LIG     1      13.511  30.313  15.230  1.00  0.00     0.025 A 
HETATM    7  C   LIG     1      14.739  30.839  14.809  1.00  0.00     0.051 A 
HETATM    8 CL   LIG     1      15.520  30.149  13.392  1.00  0.00    -0.083 Cl
ENDROOT
TORSDOF 0
ENDMDL
MODEL 13
REMARK VINA RESULT:      -4.9      9.600     10.615
REMARK  0 active torsions:
REMARK  status: ('A' for Active; 'I' for Inactive)
ROOT
HETATM    1 BR   LIG     1      17.214  33.107  14.837  1.00  0.00    -0.049 Br
HETATM    2  C   LIG     1      15.625  32.178  15.369  1.00  0.00     0.032 A 
HETATM    3  C   LIG     1      15.277  30.999  14.698  1.00  0.00     0.021 A 
HETATM    4  C   LIG     1      14.125  30.296  15.060  1.00  0.00     0.001 A 
HETATM    5  C   LIG     1      13.315  30.768  16.096  1.00  0.00     0.002 A 
HETATM    6  C   LIG     1      13.657  31.943  16.771  1.00  0.00     0.025 A 
HETATM    7  C   LIG     1      14.809  32.653  16.413  1.00  0.00     0.051 A 
HETATM    8 CL   LIG     1      15.206  34.128  17.285  1.00  0.00    -0.083 Cl
ENDROOT
TORSDOF 0
ENDMDL
MODEL 14
REMARK VINA RESULT:      -4.8     10.153     11.293
REMARK  0 active torsions:
REMARK  status: ('A' for Active; 'I' for Inactive)
ROOT
HETATM    1 BR   LIG     1      14.936  33.069  17.441  1.00  0.00    -0.049 Br
HETATM    2  C   LIG     1      14.710  31.763  16.057  1.00  0.00     0.032 A 
HETATM    3  C   LIG     1      13.583  30.932  16.093  1.00  0.00     0.021 A 
HETATM    4  C   LIG     1      13.386  29.969  15.100  1.00  0.00     0.001 A 
HETATM    5  C   LIG     1      14.316  29.832  14.065  1.00  0.00     0.002 A 
HETATM    6  C   LIG     1      15.442  30.658  14.023  1.00  0.00     0.025 A 
HETATM    7  C   LIG     1      15.645  31.625  15.016  1.00  0.00     0.051 A 
HETATM    8 CL   LIG     1      17.075  32.646  14.928  1.00  0.00    -0.083 Cl
ENDROOT
TORSDOF 0
ENDMDL
MODEL 15
REMARK VINA RESULT:      -4.7     10.196     11.097
REMARK  0 active torsions:
REMARK  status: ('A' for Active; 'I' for Inactive)
ROOT
HETATM    1 BR   LIG     1      15.322  29.615  13.662  1.00  0.00    -0.049 Br
HETATM    2  C   LIG     1      14.628  30.742  15.048  1.00  0.00     0.032 A 
HETATM    3  C   LIG     1      13.361  30.459  15.575  1.00  0.00     0.021 A 
HETATM    4  C   LIG     1      12.825  31.260  16.586  1.00  0.00     0.001 A 
HETATM    5  C   LIG     1      13.552  32.348  17.077  1.00  0.00     0.002 A 
HETATM    6  C   LIG     1      14.817  32.635  16.556  1.00  0.00     0.025 A 
HETATM    7  C   LIG     1      15.360  31.837  15.542  1.00  0.00     0.051 A 
HETATM    8 CL   LIG     1      16.954  32.231  14.912  1.00  0.00    -0.083 Cl
ENDROOT
TORSDOF 0
ENDMDL
MODEL 16
REMARK VINA RESULT:      -4.4     10.103     11.211
REMARK  0 active torsions:
REMARK  status: ('A' for Active; 'I' for Inactive)
ROOT
HETATM    1 BR   LIG     1      14.934  32.883  17.652  1.00  0.00    -0.049 Br
HETATM    2  C   LIG     1      15.064  31.991  15.961  1.00  0.00     0.032 A 
HETATM    3  C   LIG     1      16.033  32.421  15.046  1.00  0.00     0.021 A 
HETATM    4  C   LIG     1      16.156  31.794  13.803  1.00  0.00     0.001 A 
HETATM    5  C   LIG     1      15.311  30.731  13.470  1.00  0.00     0.002 A 
HETATM    6  C   LIG     1      14.343  30.296  14.379  1.00  0.00     0.025 A 
HETATM    7  C   LIG     1      14.213  30.921  15.626  1.00  0.00     0.051 A 
HETATM    8 CL   LIG     1      12.983  30.346  16.743  1.00  0.00    -0.083 Cl
ENDROOT
TORSDOF 0
ENDMDL
MODEL 17
REMARK VINA RESULT:      -3.6     13.146     13.384
REMARK  0 active torsions:
REMARK  status: ('A' for Active; 'I' for Inactive)
ROOT
HETATM    1 BR   LIG     1      30.037  38.569  16.490  1.00  0.00    -0.049 Br
HETATM    2  C   LIG     1      29.658  38.900  18.339  1.00  0.00     0.032 A 
HETATM    3  C   LIG     1      30.682  39.388  19.159  1.00  0.00     0.021 A 
HETATM    4  C   LIG     1      30.441  39.641  20.512  1.00  0.00     0.001 A 
HETATM    5  C   LIG     1      29.174  39.406  21.052  1.00  0.00     0.002 A 
HETATM    6  C   LIG     1      28.147  38.919  20.239  1.00  0.00     0.025 A 
HETATM    7  C   LIG     1      28.382  38.663  18.882  1.00  0.00     0.051 A 
HETATM    8 CL   LIG     1      27.064  38.051  17.892  1.00  0.00    -0.083 Cl
ENDROOT
TORSDOF 0
ENDMDL
MODEL 18
REMARK VINA RESULT:      -3.3     15.798     16.360
REMARK  0 active torsions:
REMARK  status: ('A' for Active; 'I' for Inactive)
ROOT
HETATM    1 BR   LIG     1      29.464  30.536  34.777  1.00  0.00    -0.049 Br
HETATM    2  C   LIG     1      28.134  31.029  36.066  1.00  0.00     0.032 A 
HETATM    3  C   LIG     1      28.519  31.799  37.170  1.00  0.00     0.021 A 
HETATM    4  C   LIG     1      27.576  32.175  38.129  1.00  0.00     0.001 A 
HETATM    5  C   LIG     1      26.241  31.784  37.989  1.00  0.00     0.002 A 
HETATM    6  C   LIG     1      25.850  31.017  36.888  1.00  0.00     0.025 A 
HETATM    7  C   LIG     1      26.791  30.635  35.924  1.00  0.00     0.051 A 
HETATM    8 CL   LIG     1      26.260  29.669  34.554  1.00  0.00    -0.083 Cl
ENDROOT
TORSDOF 0
ENDMDL
MODEL 19
REMARK VINA RESULT:      -3.3     15.776     16.463
REMARK  0 active torsions:
REMARK  status: ('A' for Active; 'I' for Inactive)
ROOT
HETATM    1 BR   LIG     1      29.120  32.215  38.077  1.00  0.00    -0.049 Br
HETATM    2  C   LIG     1      28.193  31.409  36.605  1.00  0.00     0.032 A 
HETATM    3  C   LIG     1      28.907  31.126  35.434  1.00  0.00     0.021 A 
HETATM    4  C   LIG     1      28.264  30.538  34.342  1.00  0.00     0.001 A 
HETATM    5  C   LIG     1      26.902  30.230  34.416  1.00  0.00     0.002 A 
HETATM    6  C   LIG     1      26.185  30.509  35.582  1.00  0.00     0.025 A 
HETATM    7  C   LIG     1      26.823  31.099  36.680  1.00  0.00     0.051 A 
HETATM    8 CL   LIG     1      25.886  31.435  38.129  1.00  0.00    -0.083 Cl
ENDROOT
TORSDOF 0
ENDMDL
MODEL 20
REMARK VINA RESULT:      -3.3     15.620     16.436
REMARK  0 active torsions:
REMARK  status: ('A' for Active; 'I' for Inactive)
ROOT
HETATM    1 BR   LIG     1      28.774  30.576  33.621  1.00  0.00    -0.049 Br
HETATM    2  C   LIG     1      27.891  31.055  35.253  1.00  0.00     0.032 A 
HETATM    3  C   LIG     1      26.495  30.951  35.319  1.00  0.00     0.021 A 
HETATM    4  C   LIG     1      25.819  31.292  36.493  1.00  0.00     0.001 A 
HETATM    5  C   LIG     1      26.534  31.737  37.608  1.00  0.00     0.002 A 
HETATM    6  C   LIG     1      27.927  31.841  37.549  1.00  0.00     0.025 A 
HETATM    7  C   LIG     1      28.611  31.503  36.375  1.00  0.00     0.051 A 
HETATM    8 CL   LIG     1      30.363  31.648  36.340  1.00  0.00    -0.083 Cl
ENDROOT
TORSDOF 0
ENDMDL
