REMARK  0 active torsions:
REMARK  status: ('A' for Active; 'I' for Inactive)
ROOT
HETATM    1  O   LIG     1       0.529  -2.303   0.167  1.00  0.00    -0.268 OA
HETATM    2  C   LIG     1      -0.036  -1.181   0.061  1.00  0.00     0.246 A 
HETATM    3  C   LIG     1      -1.430  -1.129  -0.052  1.00  0.00     0.074 A 
HETATM    4  C   LIG     1      -2.065   0.106  -0.169  1.00  0.00     0.007 A 
HETATM    5  C   LIG     1      -1.307   1.274  -0.173  1.00  0.00     0.017 A 
HETATM    6  C   LIG     1       0.082   1.192  -0.058  1.00  0.00     0.093 A 
HETATM    7  N   LIG     1       0.702  -0.024   0.057  1.00  0.00    -0.329 N 
HETATM    8  C   LIG     1       2.164  -0.085   0.176  1.00  0.00     0.159 C 
ENDROOT
TORSDOF 0
