REMARK  0 active torsions:
REMARK  status: ('A' for Active; 'I' for Inactive)
ROOT
HETATM    1 BR   LIG     1       2.611  -1.896   0.001  1.00  0.00    -0.049 Br
HETATM    2  C   LIG     1       1.056  -0.776   0.000  1.00  0.00     0.032 A 
HETATM    3  C   LIG     1      -0.208  -1.379  -0.004  1.00  0.00     0.021 A 
HETATM    4  C   LIG     1      -1.363  -0.593  -0.005  1.00  0.00     0.001 A 
HETATM    5  C   LIG     1      -1.260   0.801  -0.001  1.00  0.00     0.002 A 
HETATM    6  C   LIG     1      -0.002   1.409   0.004  1.00  0.00     0.025 A 
HETATM    7  C   LIG     1       1.160   0.627   0.004  1.00  0.00     0.051 A 
HETATM    8 CL   LIG     1       2.725   1.429   0.010  1.00  0.00    -0.083 Cl
ENDROOT
TORSDOF 0
