MODEL 1
REMARK VINA RESULT:      -5.7      0.000      0.000
REMARK  0 active torsions:
REMARK  status: ('A' for Active; 'I' for Inactive)
ROOT
HETATM    1  O   LIG     1      17.195  38.724  24.988  1.00  0.00    -0.268 OA
HETATM    2  C   LIG     1      17.394  37.495  25.185  1.00  0.00     0.246 A 
HETATM    3  C   LIG     1      17.986  37.085  26.385  1.00  0.00     0.074 A 
HETATM    4  C   LIG     1      18.210  35.729  26.614  1.00  0.00     0.007 A 
HETATM    5  C   LIG     1      17.843  34.796  25.647  1.00  0.00     0.017 A 
HETATM    6  C   LIG     1      17.254  35.234  24.459  1.00  0.00     0.093 A 
HETATM    7  N   LIG     1      17.036  36.568  24.239  1.00  0.00    -0.329 N 
HETATM    8  C   LIG     1      16.415  37.004  22.982  1.00  0.00     0.159 C 
ENDROOT
TORSDOF 0
ENDMDL
MODEL 2
REMARK VINA RESULT:      -5.5      1.536      2.244
REMARK  0 active torsions:
REMARK  status: ('A' for Active; 'I' for Inactive)
ROOT
HETATM    1  O   LIG     1      16.709  35.231  23.074  1.00  0.00    -0.268 OA
HETATM    2  C   LIG     1      17.167  35.705  24.149  1.00  0.00     0.246 A 
HETATM    3  C   LIG     1      17.593  34.828  25.153  1.00  0.00     0.074 A 
HETATM    4  C   LIG     1      18.101  35.341  26.345  1.00  0.00     0.007 A 
HETATM    5  C   LIG     1      18.178  36.720  26.525  1.00  0.00     0.017 A 
HETATM    6  C   LIG     1      17.747  37.571  25.506  1.00  0.00     0.093 A 
HETATM    7  N   LIG     1      17.248  37.063  24.336  1.00  0.00    -0.329 N 
HETATM    8  C   LIG     1      16.800  37.978  23.279  1.00  0.00     0.159 C 
ENDROOT
TORSDOF 0
ENDMDL
MODEL 3
REMARK VINA RESULT:      -5.2      3.879      5.497
REMARK  0 active torsions:
REMARK  status: ('A' for Active; 'I' for Inactive)
ROOT
HETATM    1  O   LIG     1      17.394  35.627  20.484  1.00  0.00    -0.268 OA
HETATM    2  C   LIG     1      17.990  36.738  20.488  1.00  0.00     0.246 A 
HETATM    3  C   LIG     1      18.973  36.985  19.523  1.00  0.00     0.074 A 
HETATM    4  C   LIG     1      19.638  38.210  19.516  1.00  0.00     0.007 A 
HETATM    5  C   LIG     1      19.319  39.173  20.469  1.00  0.00     0.017 A 
HETATM    6  C   LIG     1      18.333  38.899  21.420  1.00  0.00     0.093 A 
HETATM    7  N   LIG     1      17.682  37.694  21.422  1.00  0.00    -0.329 N 
HETATM    8  C   LIG     1      16.650  37.429  22.432  1.00  0.00     0.159 C 
ENDROOT
TORSDOF 0
ENDMDL
MODEL 4
REMARK VINA RESULT:      -4.9      1.817      3.555
REMARK  0 active torsions:
REMARK  status: ('A' for Active; 'I' for Inactive)
ROOT
HETATM    1  O   LIG     1      17.257  34.817  25.077  1.00  0.00    -0.268 OA
HETATM    2  C   LIG     1      17.190  35.616  24.104  1.00  0.00     0.246 A 
HETATM    3  C   LIG     1      17.001  35.105  22.815  1.00  0.00     0.074 A 
HETATM    4  C   LIG     1      16.924  35.979  21.733  1.00  0.00     0.007 A 
HETATM    5  C   LIG     1      17.036  37.351  21.944  1.00  0.00     0.017 A 
HETATM    6  C   LIG     1      17.223  37.833  23.241  1.00  0.00     0.093 A 
HETATM    7  N   LIG     1      17.298  36.970  24.302  1.00  0.00    -0.329 N 
HETATM    8  C   LIG     1      17.495  37.500  25.657  1.00  0.00     0.159 C 
ENDROOT
TORSDOF 0
ENDMDL
MODEL 5
REMARK VINA RESULT:      -4.7      3.867      4.646
REMARK  0 active torsions:
REMARK  status: ('A' for Active; 'I' for Inactive)
ROOT
HETATM    1  O   LIG     1      18.527  39.827  21.826  1.00  0.00    -0.268 OA
HETATM    2  C   LIG     1      18.222  38.662  21.452  1.00  0.00     0.246 A 
HETATM    3  C   LIG     1      17.222  37.966  22.141  1.00  0.00     0.074 A 
HETATM    4  C   LIG     1      16.876  36.679  21.735  1.00  0.00     0.007 A 
HETATM    5  C   LIG     1      17.528  36.098  20.651  1.00  0.00     0.017 A 
HETATM    6  C   LIG     1      18.522  36.815  19.983  1.00  0.00     0.093 A 
HETATM    7  N   LIG     1      18.859  38.081  20.384  1.00  0.00    -0.329 N 
HETATM    8  C   LIG     1      19.907  38.816  19.666  1.00  0.00     0.159 C 
ENDROOT
TORSDOF 0
ENDMDL
MODEL 6
REMARK VINA RESULT:      -4.6      2.192      3.307
REMARK  0 active torsions:
REMARK  status: ('A' for Active; 'I' for Inactive)
ROOT
HETATM    1  O   LIG     1      16.851  37.196  24.811  1.00  0.00    -0.268 OA
HETATM    2  C   LIG     1      17.005  36.802  23.623  1.00  0.00     0.246 A 
HETATM    3  C   LIG     1      16.941  35.431  23.347  1.00  0.00     0.074 A 
HETATM    4  C   LIG     1      17.109  34.985  22.038  1.00  0.00     0.007 A 
HETATM    5  C   LIG     1      17.341  35.905  21.019  1.00  0.00     0.017 A 
HETATM    6  C   LIG     1      17.400  37.267  21.324  1.00  0.00     0.093 A 
HETATM    7  N   LIG     1      17.233  37.701  22.612  1.00  0.00    -0.329 N 
HETATM    8  C   LIG     1      17.300  39.138  22.908  1.00  0.00     0.159 C 
ENDROOT
TORSDOF 0
ENDMDL
MODEL 7
REMARK VINA RESULT:      -4.6     10.126     11.531
REMARK  0 active torsions:
REMARK  status: ('A' for Active; 'I' for Inactive)
ROOT
HETATM    1  O   LIG     1      12.839  31.422  17.172  1.00  0.00    -0.268 OA
HETATM    2  C   LIG     1      13.646  31.213  16.226  1.00  0.00     0.246 A 
HETATM    3  C   LIG     1      13.379  30.179  15.321  1.00  0.00     0.074 A 
HETATM    4  C   LIG     1      14.263  29.939  14.271  1.00  0.00     0.007 A 
HETATM    5  C   LIG     1      15.402  30.728  14.133  1.00  0.00     0.017 A 
HETATM    6  C   LIG     1      15.642  31.753  15.050  1.00  0.00     0.093 A 
HETATM    7  N   LIG     1      14.770  31.986  16.081  1.00  0.00    -0.329 N 
HETATM    8  C   LIG     1      15.044  33.069  17.033  1.00  0.00     0.159 C 
ENDROOT
TORSDOF 0
ENDMDL
MODEL 8
REMARK VINA RESULT:      -4.6     10.598     11.573
REMARK  0 active torsions:
REMARK  status: ('A' for Active; 'I' for Inactive)
ROOT
HETATM    1  O   LIG     1      15.962  30.704  13.530  1.00  0.00    -0.268 OA
HETATM    2  C   LIG     1      15.312  31.045  14.555  1.00  0.00     0.246 A 
HETATM    3  C   LIG     1      14.147  30.344  14.886  1.00  0.00     0.074 A 
HETATM    4  C   LIG     1      13.421  30.712  16.018  1.00  0.00     0.007 A 
HETATM    5  C   LIG     1      13.861  31.773  16.805  1.00  0.00     0.017 A 
HETATM    6  C   LIG     1      15.027  32.454  16.450  1.00  0.00     0.093 A 
HETATM    7  N   LIG     1      15.738  32.089  15.338  1.00  0.00    -0.329 N 
HETATM    8  C   LIG     1      16.960  32.821  14.985  1.00  0.00     0.159 C 
ENDROOT
TORSDOF 0
ENDMDL
MODEL 9
REMARK VINA RESULT:      -4.6      9.867     10.785
REMARK  0 active torsions:
REMARK  status: ('A' for Active; 'I' for Inactive)
ROOT
HETATM    1  O   LIG     1      15.490  33.488  17.207  1.00  0.00    -0.268 OA
HETATM    2  C   LIG     1      15.035  32.524  16.534  1.00  0.00     0.246 A 
HETATM    3  C   LIG     1      13.836  31.922  16.934  1.00  0.00     0.074 A 
HETATM    4  C   LIG     1      13.322  30.856  16.197  1.00  0.00     0.007 A 
HETATM    5  C   LIG     1      14.007  30.400  15.074  1.00  0.00     0.017 A 
HETATM    6  C   LIG     1      15.201  31.020  14.698  1.00  0.00     0.093 A 
HETATM    7  N   LIG     1      15.702  32.068  15.425  1.00  0.00    -0.329 N 
HETATM    8  C   LIG     1      16.959  32.703  15.011  1.00  0.00     0.159 C 
ENDROOT
TORSDOF 0
ENDMDL
MODEL 10
REMARK VINA RESULT:      -4.5     10.808     11.868
REMARK  0 active torsions:
REMARK  status: ('A' for Active; 'I' for Inactive)
ROOT
HETATM    1  O   LIG     1      13.094  29.414  14.496  1.00  0.00    -0.268 OA
HETATM    2  C   LIG     1      13.650  30.338  15.150  1.00  0.00     0.246 A 
HETATM    3  C   LIG     1      13.056  30.783  16.337  1.00  0.00     0.074 A 
HETATM    4  C   LIG     1      13.661  31.803  17.068  1.00  0.00     0.007 A 
HETATM    5  C   LIG     1      14.849  32.368  16.611  1.00  0.00     0.017 A 
HETATM    6  C   LIG     1      15.420  31.903  15.425  1.00  0.00     0.093 A 
HETATM    7  N   LIG     1      14.821  30.900  14.709  1.00  0.00    -0.329 N 
HETATM    8  C   LIG     1      15.439  30.428  13.464  1.00  0.00     0.159 C 
ENDROOT
TORSDOF 0
ENDMDL
MODEL 11
REMARK VINA RESULT:      -4.4      9.797     11.194
REMARK  0 active torsions:
REMARK  status: ('A' for Active; 'I' for Inactive)
ROOT
HETATM    1  O   LIG     1      16.782  32.786  15.598  1.00  0.00    -0.268 OA
HETATM    2  C   LIG     1      15.789  32.015  15.504  1.00  0.00     0.246 A 
HETATM    3  C   LIG     1      15.686  31.170  14.393  1.00  0.00     0.074 A 
HETATM    4  C   LIG     1      14.592  30.313  14.279  1.00  0.00     0.007 A 
HETATM    5  C   LIG     1      13.614  30.308  15.270  1.00  0.00     0.017 A 
HETATM    6  C   LIG     1      13.743  31.161  16.368  1.00  0.00     0.093 A 
HETATM    7  N   LIG     1      14.820  32.001  16.475  1.00  0.00    -0.329 N 
HETATM    8  C   LIG     1      14.933  32.890  17.638  1.00  0.00     0.159 C 
ENDROOT
TORSDOF 0
ENDMDL
MODEL 12
REMARK VINA RESULT:      -4.4      1.733      2.325
REMARK  0 active torsions:
REMARK  status: ('A' for Active; 'I' for Inactive)
ROOT
HETATM    1  O   LIG     1      17.248  37.680  21.582  1.00  0.00    -0.268 OA
HETATM    2  C   LIG     1      17.361  37.324  22.786  1.00  0.00     0.246 A 
HETATM    3  C   LIG     1      17.806  38.254  23.732  1.00  0.00     0.074 A 
HETATM    4  C   LIG     1      17.933  37.871  25.066  1.00  0.00     0.007 A 
HETATM    5  C   LIG     1      17.617  36.569  25.443  1.00  0.00     0.017 A 
HETATM    6  C   LIG     1      17.174  35.662  24.478  1.00  0.00     0.093 A 
HETATM    7  N   LIG     1      17.051  36.043  23.168  1.00  0.00    -0.329 N 
HETATM    8  C   LIG     1      16.584  35.071  22.171  1.00  0.00     0.159 C 
ENDROOT
TORSDOF 0
ENDMDL
MODEL 13
REMARK VINA RESULT:      -4.3     10.333     11.399
REMARK  0 active torsions:
REMARK  status: ('A' for Active; 'I' for Inactive)
ROOT
HETATM    1  O   LIG     1      16.267  31.360  13.803  1.00  0.00    -0.268 OA
HETATM    2  C   LIG     1      15.545  31.533  14.822  1.00  0.00     0.246 A 
HETATM    3  C   LIG     1      15.811  32.614  15.670  1.00  0.00     0.074 A 
HETATM    4  C   LIG     1      15.019  32.815  16.798  1.00  0.00     0.007 A 
HETATM    5  C   LIG     1      13.972  31.938  17.071  1.00  0.00     0.017 A 
HETATM    6  C   LIG     1      13.728  30.869  16.207  1.00  0.00     0.093 A 
HETATM    7  N   LIG     1      14.510  30.675  15.099  1.00  0.00    -0.329 N 
HETATM    8  C   LIG     1      14.235  29.543  14.206  1.00  0.00     0.159 C 
ENDROOT
TORSDOF 0
ENDMDL
MODEL 14
REMARK VINA RESULT:      -4.1     10.257     11.307
REMARK  0 active torsions:
REMARK  status: ('A' for Active; 'I' for Inactive)
ROOT
HETATM    1  O   LIG     1      15.594  32.897  17.142  1.00  0.00    -0.268 OA
HETATM    2  C   LIG     1      15.543  32.317  16.023  1.00  0.00     0.246 A 
HETATM    3  C   LIG     1      16.432  32.705  15.015  1.00  0.00     0.074 A 
HETATM    4  C   LIG     1      16.385  32.071  13.775  1.00  0.00     0.007 A 
HETATM    5  C   LIG     1      15.454  31.059  13.552  1.00  0.00     0.017 A 
HETATM    6  C   LIG     1      14.579  30.693  14.577  1.00  0.00     0.093 A 
HETATM    7  N   LIG     1      14.629  31.319  15.794  1.00  0.00    -0.329 N 
HETATM    8  C   LIG     1      13.699  30.917  16.856  1.00  0.00     0.159 C 
ENDROOT
TORSDOF 0
ENDMDL
MODEL 15
REMARK VINA RESULT:      -4.0     10.871     11.871
REMARK  0 active torsions:
REMARK  status: ('A' for Active; 'I' for Inactive)
ROOT
HETATM    1  O   LIG     1      13.929  29.623  14.174  1.00  0.00    -0.268 OA
HETATM    2  C   LIG     1      14.567  30.607  14.636  1.00  0.00     0.246 A 
HETATM    3  C   LIG     1      15.656  31.112  13.915  1.00  0.00     0.074 A 
HETATM    4  C   LIG     1      16.368  32.200  14.417  1.00  0.00     0.007 A 
HETATM    5  C   LIG     1      15.990  32.773  15.628  1.00  0.00     0.017 A 
HETATM    6  C   LIG     1      14.899  32.250  16.325  1.00  0.00     0.093 A 
HETATM    7  N   LIG     1      14.202  31.180  15.828  1.00  0.00    -0.329 N 
HETATM    8  C   LIG     1      13.059  30.647  16.579  1.00  0.00     0.159 C 
ENDROOT
TORSDOF 0
ENDMDL
MODEL 16
REMARK VINA RESULT:      -3.9     12.854     13.812
REMARK  0 active torsions:
REMARK  status: ('A' for Active; 'I' for Inactive)
ROOT
HETATM    1  O   LIG     1      12.689  27.529  13.826  1.00  0.00    -0.268 OA
HETATM    2  C   LIG     1      13.396  28.515  14.168  1.00  0.00     0.246 A 
HETATM    3  C   LIG     1      12.798  29.574  14.861  1.00  0.00     0.074 A 
HETATM    4  C   LIG     1      13.570  30.669  15.244  1.00  0.00     0.007 A 
HETATM    5  C   LIG     1      14.927  30.698  14.934  1.00  0.00     0.017 A 
HETATM    6  C   LIG     1      15.498  29.627  14.243  1.00  0.00     0.093 A 
HETATM    7  N   LIG     1      14.735  28.553  13.869  1.00  0.00    -0.329 N 
HETATM    8  C   LIG     1      15.357  27.439  13.142  1.00  0.00     0.159 C 
ENDROOT
TORSDOF 0
ENDMDL
MODEL 17
REMARK VINA RESULT:      -3.9      6.968      8.027
REMARK  0 active torsions:
REMARK  status: ('A' for Active; 'I' for Inactive)
ROOT
HETATM    1  O   LIG     1      15.147  34.598  16.489  1.00  0.00    -0.268 OA
HETATM    2  C   LIG     1      15.186  34.000  17.597  1.00  0.00     0.246 A 
HETATM    3  C   LIG     1      15.557  34.712  18.743  1.00  0.00     0.074 A 
HETATM    4  C   LIG     1      15.603  34.060  19.974  1.00  0.00     0.007 A 
HETATM    5  C   LIG     1      15.280  32.708  20.051  1.00  0.00     0.017 A 
HETATM    6  C   LIG     1      14.912  32.022  18.892  1.00  0.00     0.093 A 
HETATM    7  N   LIG     1      14.868  32.667  17.684  1.00  0.00    -0.329 N 
HETATM    8  C   LIG     1      14.479  31.925  16.478  1.00  0.00     0.159 C 
ENDROOT
TORSDOF 0
ENDMDL
MODEL 18
REMARK VINA RESULT:      -3.7      7.185      8.340
REMARK  0 active torsions:
REMARK  status: ('A' for Active; 'I' for Inactive)
ROOT
HETATM    1  O   LIG     1      15.945  33.739  20.241  1.00  0.00    -0.268 OA
HETATM    2  C   LIG     1      15.414  33.397  19.150  1.00  0.00     0.246 A 
HETATM    3  C   LIG     1      15.408  34.301  18.082  1.00  0.00     0.074 A 
HETATM    4  C   LIG     1      14.824  33.933  16.872  1.00  0.00     0.007 A 
HETATM    5  C   LIG     1      14.253  32.670  16.737  1.00  0.00     0.017 A 
HETATM    6  C   LIG     1      14.274  31.788  17.819  1.00  0.00     0.093 A 
HETATM    7  N   LIG     1      14.849  32.154  19.007  1.00  0.00    -0.329 N 
HETATM    8  C   LIG     1      14.859  31.209  20.131  1.00  0.00     0.159 C 
ENDROOT
TORSDOF 0
ENDMDL
MODEL 19
REMARK VINA RESULT:      -3.5      6.825      7.969
REMARK  0 active torsions:
REMARK  status: ('A' for Active; 'I' for Inactive)
ROOT
HETATM    1  O   LIG     1      14.492  31.033  19.337  1.00  0.00    -0.268 OA
HETATM    2  C   LIG     1      14.863  32.227  19.175  1.00  0.00     0.246 A 
HETATM    3  C   LIG     1      15.303  32.960  20.283  1.00  0.00     0.074 A 
HETATM    4  C   LIG     1      15.717  34.280  20.114  1.00  0.00     0.007 A 
HETATM    5  C   LIG     1      15.688  34.855  18.847  1.00  0.00     0.017 A 
HETATM    6  C   LIG     1      15.245  34.100  17.759  1.00  0.00     0.093 A 
HETATM    7  N   LIG     1      14.840  32.803  17.929  1.00  0.00    -0.329 N 
HETATM    8  C   LIG     1      14.377  32.029  16.771  1.00  0.00     0.159 C 
ENDROOT
TORSDOF 0
ENDMDL
