MODEL 1
REMARK VINA RESULT:      -6.2      0.000      0.000
REMARK  1 active torsions:
REMARK  status: ('A' for Active; 'I' for Inactive)
REMARK    1  A    between atoms: S_2  and  C_3 
ROOT
HETATM    1  C   LIG     1      16.789  36.422  22.778  1.00  0.00     0.127 A 
HETATM    2  C   LIG     1      17.199  36.264  24.106  1.00  0.00     0.139 A 
HETATM    3  N   LIG     1      17.390  35.037  24.662  1.00  0.00    -0.253 NA
HETATM    4  C   LIG     1      17.790  34.912  25.955  1.00  0.00     0.137 A 
HETATM    5  C   LIG     1      18.008  36.059  26.726  1.00  0.00     0.138 A 
HETATM    6  N   LIG     1      17.817  37.286  26.172  1.00  0.00    -0.238 NA
HETATM    7  C   LIG     1      17.417  37.416  24.881  1.00  0.00     0.182 A 
HETATM    8  N   LIG     1      17.230  38.645  24.337  1.00  0.00    -0.220 NA
HETATM    9  C   LIG     1      16.829  38.777  23.044  1.00  0.00     0.236 A 
HETATM   10  N   LIG     1      16.612  37.674  22.278  1.00  0.00    -0.233 NA
ENDROOT
BRANCH   1  11
HETATM   11  S   LIG     1      16.487  35.003  21.721  1.00  0.00    -0.112 SA
HETATM   12  C   LIG     1      14.846  35.589  21.201  1.00  0.00     0.097 C 
ENDBRANCH   1  11
TORSDOF 1
ENDMDL
MODEL 2
REMARK VINA RESULT:      -5.7      2.827      5.001
REMARK  1 active torsions:
REMARK  status: ('A' for Active; 'I' for Inactive)
REMARK    1  A    between atoms: S_2  and  C_3 
ROOT
HETATM    1  C   LIG     1      17.181  37.191  22.614  1.00  0.00     0.127 A 
HETATM    2  C   LIG     1      17.933  37.648  21.526  1.00  0.00     0.139 A 
HETATM    3  N   LIG     1      18.634  38.812  21.571  1.00  0.00    -0.253 NA
HETATM    4  C   LIG     1      19.359  39.231  20.500  1.00  0.00     0.137 A 
HETATM    5  C   LIG     1      19.385  38.456  19.336  1.00  0.00     0.138 A 
HETATM    6  N   LIG     1      18.684  37.292  19.289  1.00  0.00    -0.238 NA
HETATM    7  C   LIG     1      17.958  36.870  20.356  1.00  0.00     0.182 A 
HETATM    8  N   LIG     1      17.262  35.705  20.301  1.00  0.00    -0.220 NA
HETATM    9  C   LIG     1      16.535  35.281  21.368  1.00  0.00     0.236 A 
HETATM   10  N   LIG     1      16.497  36.020  22.509  1.00  0.00    -0.233 NA
ENDROOT
BRANCH   1  11
HETATM   11  S   LIG     1      17.094  38.125  24.144  1.00  0.00    -0.112 SA
HETATM   12  C   LIG     1      17.416  36.672  25.189  1.00  0.00     0.097 C 
ENDBRANCH   1  11
TORSDOF 1
ENDMDL
MODEL 3
REMARK VINA RESULT:      -5.6      2.511      4.173
REMARK  1 active torsions:
REMARK  status: ('A' for Active; 'I' for Inactive)
REMARK    1  A    between atoms: S_2  and  C_3 
ROOT
HETATM    1  C   LIG     1      16.981  36.701  22.106  1.00  0.00     0.127 A 
HETATM    2  C   LIG     1      17.830  37.279  21.156  1.00  0.00     0.139 A 
HETATM    3  N   LIG     1      18.238  36.605  20.048  1.00  0.00    -0.253 NA
HETATM    4  C   LIG     1      19.062  37.191  19.139  1.00  0.00     0.137 A 
HETATM    5  C   LIG     1      19.496  38.505  19.345  1.00  0.00     0.138 A 
HETATM    6  N   LIG     1      19.090  39.180  20.453  1.00  0.00    -0.238 NA
HETATM    7  C   LIG     1      18.267  38.599  21.363  1.00  0.00     0.182 A 
HETATM    8  N   LIG     1      17.866  39.281  22.466  1.00  0.00    -0.220 NA
HETATM    9  C   LIG     1      17.043  38.700  23.379  1.00  0.00     0.236 A 
HETATM   10  N   LIG     1      16.609  37.424  23.197  1.00  0.00    -0.233 NA
ENDROOT
BRANCH   1  11
HETATM   11  S   LIG     1      16.378  35.022  21.918  1.00  0.00    -0.112 SA
HETATM   12  C   LIG     1      14.782  35.546  21.219  1.00  0.00     0.097 C 
ENDBRANCH   1  11
TORSDOF 1
ENDMDL
MODEL 4
REMARK VINA RESULT:      -5.5      1.763      2.912
REMARK  1 active torsions:
REMARK  status: ('A' for Active; 'I' for Inactive)
REMARK    1  A    between atoms: S_2  and  C_3 
ROOT
HETATM    1  C   LIG     1      16.992  37.483  22.730  1.00  0.00     0.127 A 
HETATM    2  C   LIG     1      17.289  36.852  23.943  1.00  0.00     0.139 A 
HETATM    3  N   LIG     1      17.672  37.551  25.045  1.00  0.00    -0.253 NA
HETATM    4  C   LIG     1      17.952  36.913  26.212  1.00  0.00     0.137 A 
HETATM    5  C   LIG     1      17.846  35.520  26.283  1.00  0.00     0.138 A 
HETATM    6  N   LIG     1      17.464  34.820  25.181  1.00  0.00    -0.238 NA
HETATM    7  C   LIG     1      17.183  35.453  24.013  1.00  0.00     0.182 A 
HETATM    8  N   LIG     1      16.801  34.746  22.919  1.00  0.00    -0.220 NA
HETATM    9  C   LIG     1      16.520  35.378  21.749  1.00  0.00     0.236 A 
HETATM   10  N   LIG     1      16.616  36.731  21.660  1.00  0.00    -0.233 NA
ENDROOT
BRANCH   1  11
HETATM   11  S   LIG     1      17.103  39.266  22.555  1.00  0.00    -0.112 SA
HETATM   12  C   LIG     1      18.457  39.182  21.343  1.00  0.00     0.097 C 
ENDBRANCH   1  11
TORSDOF 1
ENDMDL
MODEL 5
REMARK VINA RESULT:      -5.4      9.077     10.269
REMARK  1 active torsions:
REMARK  status: ('A' for Active; 'I' for Inactive)
REMARK    1  A    between atoms: S_2  and  C_3 
ROOT
HETATM    1  C   LIG     1      14.970  31.089  15.177  1.00  0.00     0.127 A 
HETATM    2  C   LIG     1      15.817  32.195  15.038  1.00  0.00     0.139 A 
HETATM    3  N   LIG     1      16.753  32.268  14.054  1.00  0.00    -0.253 NA
HETATM    4  C   LIG     1      17.562  33.355  13.940  1.00  0.00     0.137 A 
HETATM    5  C   LIG     1      17.431  34.413  14.846  1.00  0.00     0.138 A 
HETATM    6  N   LIG     1      16.495  34.342  15.830  1.00  0.00    -0.238 NA
HETATM    7  C   LIG     1      15.685  33.257  15.948  1.00  0.00     0.182 A 
HETATM    8  N   LIG     1      14.754  33.195  16.933  1.00  0.00    -0.220 NA
HETATM    9  C   LIG     1      13.943  32.111  17.053  1.00  0.00     0.236 A 
HETATM   10  N   LIG     1      14.054  31.072  16.182  1.00  0.00    -0.233 NA
ENDROOT
BRANCH   1  11
HETATM   11  S   LIG     1      15.074  29.690  14.058  1.00  0.00    -0.112 SA
HETATM   12  C   LIG     1      13.338  29.208  14.309  1.00  0.00     0.097 C 
ENDBRANCH   1  11
TORSDOF 1
ENDMDL
MODEL 6
REMARK VINA RESULT:      -5.4      8.286     10.455
REMARK  1 active torsions:
REMARK  status: ('A' for Active; 'I' for Inactive)
REMARK    1  A    between atoms: S_2  and  C_3 
ROOT
HETATM    1  C   LIG     1      16.474  32.462  14.459  1.00  0.00     0.127 A 
HETATM    2  C   LIG     1      15.674  32.251  15.587  1.00  0.00     0.139 A 
HETATM    3  N   LIG     1      15.798  33.006  16.711  1.00  0.00    -0.253 NA
HETATM    4  C   LIG     1      15.005  32.781  17.793  1.00  0.00     0.137 A 
HETATM    5  C   LIG     1      14.050  31.760  17.751  1.00  0.00     0.138 A 
HETATM    6  N   LIG     1      13.925  31.004  16.627  1.00  0.00    -0.238 NA
HETATM    7  C   LIG     1      14.715  31.225  15.545  1.00  0.00     0.182 A 
HETATM    8  N   LIG     1      14.583  30.465  14.427  1.00  0.00    -0.220 NA
HETATM    9  C   LIG     1      15.372  30.685  13.343  1.00  0.00     0.236 A 
HETATM   10  N   LIG     1      16.307  31.673  13.364  1.00  0.00    -0.233 NA
ENDROOT
BRANCH   1  11
HETATM   11  S   LIG     1      17.723  33.750  14.431  1.00  0.00    -0.112 SA
HETATM   12  C   LIG     1      18.178  33.438  12.697  1.00  0.00     0.097 C 
ENDBRANCH   1  11
TORSDOF 1
ENDMDL
MODEL 7
REMARK VINA RESULT:      -5.3      9.450     10.936
REMARK  1 active torsions:
REMARK  status: ('A' for Active; 'I' for Inactive)
REMARK    1  A    between atoms: S_2  and  C_3 
ROOT
HETATM    1  C   LIG     1      15.056  31.789  15.630  1.00  0.00     0.127 A 
HETATM    2  C   LIG     1      16.034  32.524  14.951  1.00  0.00     0.139 A 
HETATM    3  N   LIG     1      16.565  33.665  15.465  1.00  0.00    -0.253 NA
HETATM    4  C   LIG     1      17.516  34.360  14.786  1.00  0.00     0.137 A 
HETATM    5  C   LIG     1      17.955  33.896  13.541  1.00  0.00     0.138 A 
HETATM    6  N   LIG     1      17.424  32.755  13.025  1.00  0.00    -0.238 NA
HETATM    7  C   LIG     1      16.474  32.058  13.700  1.00  0.00     0.182 A 
HETATM    8  N   LIG     1      15.950  30.920  13.177  1.00  0.00    -0.220 NA
HETATM    9  C   LIG     1      14.998  30.222  13.852  1.00  0.00     0.236 A 
HETATM   10  N   LIG     1      14.559  30.656  15.063  1.00  0.00    -0.233 NA
ENDROOT
BRANCH   1  11
HETATM   11  S   LIG     1      14.438  32.315  17.230  1.00  0.00    -0.112 SA
HETATM   12  C   LIG     1      12.722  31.842  16.857  1.00  0.00     0.097 C 
ENDBRANCH   1  11
TORSDOF 1
ENDMDL
MODEL 8
REMARK VINA RESULT:      -5.3      8.363     10.424
REMARK  1 active torsions:
REMARK  status: ('A' for Active; 'I' for Inactive)
REMARK    1  A    between atoms: S_2  and  C_3 
ROOT
HETATM    1  C   LIG     1      14.882  30.717  14.360  1.00  0.00     0.127 A 
HETATM    2  C   LIG     1      14.886  31.459  15.546  1.00  0.00     0.139 A 
HETATM    3  N   LIG     1      14.141  31.099  16.625  1.00  0.00    -0.253 NA
HETATM    4  C   LIG     1      14.164  31.836  17.767  1.00  0.00     0.137 A 
HETATM    5  C   LIG     1      14.966  32.981  17.835  1.00  0.00     0.138 A 
HETATM    6  N   LIG     1      15.712  33.342  16.757  1.00  0.00    -0.238 NA
HETATM    7  C   LIG     1      15.691  32.609  15.614  1.00  0.00     0.182 A 
HETATM    8  N   LIG     1      16.440  32.977  14.543  1.00  0.00    -0.220 NA
HETATM    9  C   LIG     1      16.419  32.244  13.398  1.00  0.00     0.236 A 
HETATM   10  N   LIG     1      15.647  31.128  13.313  1.00  0.00    -0.233 NA
ENDROOT
BRANCH   1  11
HETATM   11  S   LIG     1      13.882  29.237  14.190  1.00  0.00    -0.112 SA
HETATM   12  C   LIG     1      15.293  28.195  13.707  1.00  0.00     0.097 C 
ENDBRANCH   1  11
TORSDOF 1
ENDMDL
MODEL 9
REMARK VINA RESULT:      -5.2      2.363      4.205
REMARK  1 active torsions:
REMARK  status: ('A' for Active; 'I' for Inactive)
REMARK    1  A    between atoms: S_2  and  C_3 
ROOT
HETATM    1  C   LIG     1      17.613  38.065  23.103  1.00  0.00     0.127 A 
HETATM    2  C   LIG     1      17.187  37.025  22.269  1.00  0.00     0.139 A 
HETATM    3  N   LIG     1      16.341  36.053  22.702  1.00  0.00    -0.253 NA
HETATM    4  C   LIG     1      15.941  35.055  21.870  1.00  0.00     0.137 A 
HETATM    5  C   LIG     1      16.405  35.026  20.551  1.00  0.00     0.138 A 
HETATM    6  N   LIG     1      17.252  35.997  20.116  1.00  0.00    -0.238 NA
HETATM    7  C   LIG     1      17.654  36.995  20.944  1.00  0.00     0.182 A 
HETATM    8  N   LIG     1      18.500  37.961  20.501  1.00  0.00    -0.220 NA
HETATM    9  C   LIG     1      18.904  38.961  21.328  1.00  0.00     0.236 A 
HETATM   10  N   LIG     1      18.463  39.007  22.614  1.00  0.00    -0.233 NA
ENDROOT
BRANCH   1  11
HETATM   11  S   LIG     1      17.065  38.175  24.808  1.00  0.00    -0.112 SA
HETATM   12  C   LIG     1      18.425  37.144  25.437  1.00  0.00     0.097 C 
ENDBRANCH   1  11
TORSDOF 1
ENDMDL
MODEL 10
REMARK VINA RESULT:      -5.2      2.952      4.205
REMARK  1 active torsions:
REMARK  status: ('A' for Active; 'I' for Inactive)
REMARK    1  A    between atoms: S_2  and  C_3 
ROOT
HETATM    1  C   LIG     1      18.025  37.444  20.859  1.00  0.00     0.127 A 
HETATM    2  C   LIG     1      17.008  36.494  21.001  1.00  0.00     0.139 A 
HETATM    3  N   LIG     1      16.879  35.441  20.151  1.00  0.00    -0.253 NA
HETATM    4  C   LIG     1      15.883  34.531  20.313  1.00  0.00     0.137 A 
HETATM    5  C   LIG     1      14.976  34.678  21.368  1.00  0.00     0.138 A 
HETATM    6  N   LIG     1      15.102  35.731  22.219  1.00  0.00    -0.238 NA
HETATM    7  C   LIG     1      16.096  36.643  22.061  1.00  0.00     0.182 A 
HETATM    8  N   LIG     1      16.215  37.690  22.916  1.00  0.00    -0.220 NA
HETATM    9  C   LIG     1      17.209  38.604  22.759  1.00  0.00     0.236 A 
HETATM   10  N   LIG     1      18.101  38.478  21.740  1.00  0.00    -0.233 NA
ENDROOT
BRANCH   1  11
HETATM   11  S   LIG     1      19.228  37.329  19.533  1.00  0.00    -0.112 SA
HETATM   12  C   LIG     1      19.956  38.957  19.890  1.00  0.00     0.097 C 
ENDBRANCH   1  11
TORSDOF 1
ENDMDL
MODEL 11
REMARK VINA RESULT:      -5.1      2.267      3.217
REMARK  1 active torsions:
REMARK  status: ('A' for Active; 'I' for Inactive)
REMARK    1  A    between atoms: S_2  and  C_3 
ROOT
HETATM    1  C   LIG     1      17.137  36.009  20.748  1.00  0.00     0.127 A 
HETATM    2  C   LIG     1      17.228  36.916  21.809  1.00  0.00     0.139 A 
HETATM    3  N   LIG     1      16.516  36.759  22.957  1.00  0.00    -0.253 NA
HETATM    4  C   LIG     1      16.625  37.654  23.974  1.00  0.00     0.137 A 
HETATM    5  C   LIG     1      17.481  38.753  23.840  1.00  0.00     0.138 A 
HETATM    6  N   LIG     1      18.194  38.912  22.693  1.00  0.00    -0.238 NA
HETATM    7  C   LIG     1      18.087  38.020  21.674  1.00  0.00     0.182 A 
HETATM    8  N   LIG     1      18.803  38.187  20.533  1.00  0.00    -0.220 NA
HETATM    9  C   LIG     1      18.698  37.295  19.512  1.00  0.00     0.236 A 
HETATM   10  N   LIG     1      17.872  36.220  19.623  1.00  0.00    -0.233 NA
ENDROOT
BRANCH   1  11
HETATM   11  S   LIG     1      16.063  34.574  20.839  1.00  0.00    -0.112 SA
HETATM   12  C   LIG     1      15.509  34.730  19.113  1.00  0.00     0.097 C 
ENDBRANCH   1  11
TORSDOF 1
ENDMDL
MODEL 12
REMARK VINA RESULT:      -4.9      8.057     10.569
REMARK  1 active torsions:
REMARK  status: ('A' for Active; 'I' for Inactive)
REMARK    1  A    between atoms: S_2  and  C_3 
ROOT
HETATM    1  C   LIG     1      15.677  33.199  15.998  1.00  0.00     0.127 A 
HETATM    2  C   LIG     1      15.297  32.025  15.338  1.00  0.00     0.139 A 
HETATM    3  N   LIG     1      14.214  31.298  15.724  1.00  0.00    -0.253 NA
HETATM    4  C   LIG     1      13.865  30.162  15.063  1.00  0.00     0.137 A 
HETATM    5  C   LIG     1      14.629  29.734  13.972  1.00  0.00     0.138 A 
HETATM    6  N   LIG     1      15.712  30.459  13.585  1.00  0.00    -0.238 NA
HETATM    7  C   LIG     1      16.065  31.594  14.242  1.00  0.00     0.182 A 
HETATM    8  N   LIG     1      17.148  32.312  13.849  1.00  0.00    -0.220 NA
HETATM    9  C   LIG     1      17.502  33.448  14.506  1.00  0.00     0.236 A 
HETATM   10  N   LIG     1      16.772  33.882  15.568  1.00  0.00    -0.233 NA
ENDROOT
BRANCH   1  11
HETATM   11  S   LIG     1      14.752  33.817  17.406  1.00  0.00    -0.112 SA
HETATM   12  C   LIG     1      15.331  32.498  18.517  1.00  0.00     0.097 C 
ENDBRANCH   1  11
TORSDOF 1
ENDMDL
MODEL 13
REMARK VINA RESULT:      -4.9      8.531     10.588
REMARK  1 active torsions:
REMARK  status: ('A' for Active; 'I' for Inactive)
REMARK    1  A    between atoms: S_2  and  C_3 
ROOT
HETATM    1  C   LIG     1      16.567  32.994  15.259  1.00  0.00     0.127 A 
HETATM    2  C   LIG     1      15.770  31.878  14.982  1.00  0.00     0.139 A 
HETATM    3  N   LIG     1      16.121  30.953  14.049  1.00  0.00    -0.253 NA
HETATM    4  C   LIG     1      15.330  29.877  13.800  1.00  0.00     0.137 A 
HETATM    5  C   LIG     1      14.136  29.716  14.513  1.00  0.00     0.138 A 
HETATM    6  N   LIG     1      13.783  30.640  15.446  1.00  0.00    -0.238 NA
HETATM    7  C   LIG     1      14.571  31.717  15.697  1.00  0.00     0.182 A 
HETATM    8  N   LIG     1      14.210  32.634  16.631  1.00  0.00    -0.220 NA
HETATM    9  C   LIG     1      14.998  33.713  16.884  1.00  0.00     0.236 A 
HETATM   10  N   LIG     1      16.162  33.886  16.202  1.00  0.00    -0.233 NA
ENDROOT
BRANCH   1  11
HETATM   11  S   LIG     1      18.112  33.274  14.391  1.00  0.00    -0.112 SA
HETATM   12  C   LIG     1      17.318  34.167  13.020  1.00  0.00     0.097 C 
ENDBRANCH   1  11
TORSDOF 1
ENDMDL
MODEL 14
REMARK VINA RESULT:      -4.5      9.205     11.052
REMARK  1 active torsions:
REMARK  status: ('A' for Active; 'I' for Inactive)
REMARK    1  A    between atoms: S_2  and  C_3 
ROOT
HETATM    1  C   LIG     1      16.051  32.165  14.214  1.00  0.00     0.127 A 
HETATM    2  C   LIG     1      17.129  32.841  13.632  1.00  0.00     0.139 A 
HETATM    3  N   LIG     1      17.725  32.403  12.491  1.00  0.00    -0.253 NA
HETATM    4  C   LIG     1      18.769  33.080  11.945  1.00  0.00     0.137 A 
HETATM    5  C   LIG     1      19.240  34.242  12.564  1.00  0.00     0.138 A 
HETATM    6  N   LIG     1      18.646  34.682  13.706  1.00  0.00    -0.238 NA
HETATM    7  C   LIG     1      17.603  34.008  14.255  1.00  0.00     0.182 A 
HETATM    8  N   LIG     1      17.016  34.455  15.395  1.00  0.00    -0.220 NA
HETATM    9  C   LIG     1      15.971  33.782  15.946  1.00  0.00     0.236 A 
HETATM   10  N   LIG     1      15.498  32.650  15.359  1.00  0.00    -0.233 NA
ENDROOT
BRANCH   1  11
HETATM   11  S   LIG     1      15.387  30.667  13.484  1.00  0.00    -0.112 SA
HETATM   12  C   LIG     1      14.434  30.223  14.968  1.00  0.00     0.097 C 
ENDBRANCH   1  11
TORSDOF 1
ENDMDL
MODEL 15
REMARK VINA RESULT:      -4.2      6.203      7.935
REMARK  1 active torsions:
REMARK  status: ('A' for Active; 'I' for Inactive)
REMARK    1  A    between atoms: S_2  and  C_3 
ROOT
HETATM    1  C   LIG     1      14.673  32.086  16.492  1.00  0.00     0.127 A 
HETATM    2  C   LIG     1      14.814  32.354  17.858  1.00  0.00     0.139 A 
HETATM    3  N   LIG     1      14.372  31.493  18.813  1.00  0.00    -0.253 NA
HETATM    4  C   LIG     1      14.524  31.777  20.134  1.00  0.00     0.137 A 
HETATM    5  C   LIG     1      15.143  32.971  20.518  1.00  0.00     0.138 A 
HETATM    6  N   LIG     1      15.585  33.834  19.564  1.00  0.00    -0.238 NA
HETATM    7  C   LIG     1      15.435  33.554  18.244  1.00  0.00     0.182 A 
HETATM    8  N   LIG     1      15.880  34.422  17.299  1.00  0.00    -0.220 NA
HETATM    9  C   LIG     1      15.730  34.143  15.977  1.00  0.00     0.236 A 
HETATM   10  N   LIG     1      15.132  32.987  15.584  1.00  0.00    -0.233 NA
ENDROOT
BRANCH   1  11
HETATM   11  S   LIG     1      13.890  30.577  15.916  1.00  0.00    -0.112 SA
HETATM   12  C   LIG     1      14.978  30.426  14.466  1.00  0.00     0.097 C 
ENDBRANCH   1  11
TORSDOF 1
ENDMDL
MODEL 16
REMARK VINA RESULT:      -4.0      7.368      9.761
REMARK  1 active torsions:
REMARK  status: ('A' for Active; 'I' for Inactive)
REMARK    1  A    between atoms: S_2  and  C_3 
ROOT
HETATM    1  C   LIG     1      14.932  32.502  17.137  1.00  0.00     0.127 A 
HETATM    2  C   LIG     1      15.325  32.246  15.819  1.00  0.00     0.139 A 
HETATM    3  N   LIG     1      15.004  31.089  15.181  1.00  0.00    -0.253 NA
HETATM    4  C   LIG     1      15.397  30.866  13.899  1.00  0.00     0.137 A 
HETATM    5  C   LIG     1      16.142  31.839  13.225  1.00  0.00     0.138 A 
HETATM    6  N   LIG     1      16.465  32.997  13.861  1.00  0.00    -0.238 NA
HETATM    7  C   LIG     1      16.075  33.223  15.142  1.00  0.00     0.182 A 
HETATM    8  N   LIG     1      16.401  34.382  15.769  1.00  0.00    -0.220 NA
HETATM    9  C   LIG     1      16.011  34.610  17.051  1.00  0.00     0.236 A 
HETATM   10  N   LIG     1      15.286  33.677  17.723  1.00  0.00    -0.233 NA
ENDROOT
BRANCH   1  11
HETATM   11  S   LIG     1      13.974  31.306  18.072  1.00  0.00    -0.112 SA
HETATM   12  C   LIG     1      14.855  31.639  19.628  1.00  0.00     0.097 C 
ENDBRANCH   1  11
TORSDOF 1
ENDMDL
MODEL 17
REMARK VINA RESULT:      -3.9      4.967      7.802
REMARK  1 active torsions:
REMARK  status: ('A' for Active; 'I' for Inactive)
REMARK    1  A    between atoms: S_2  and  C_3 
ROOT
HETATM    1  C   LIG     1      15.336  33.884  19.920  1.00  0.00     0.127 A 
HETATM    2  C   LIG     1      15.291  33.535  18.566  1.00  0.00     0.139 A 
HETATM    3  N   LIG     1      15.666  34.399  17.585  1.00  0.00    -0.253 NA
HETATM    4  C   LIG     1      15.615  34.035  16.276  1.00  0.00     0.137 A 
HETATM    5  C   LIG     1      15.171  32.753  15.932  1.00  0.00     0.138 A 
HETATM    6  N   LIG     1      14.795  31.888  16.911  1.00  0.00    -0.238 NA
HETATM    7  C   LIG     1      14.844  32.249  18.220  1.00  0.00     0.182 A 
HETATM    8  N   LIG     1      14.467  31.377  19.191  1.00  0.00    -0.220 NA
HETATM    9  C   LIG     1      14.516  31.737  20.501  1.00  0.00     0.236 A 
HETATM   10  N   LIG     1      14.945  32.978  20.856  1.00  0.00    -0.233 NA
ENDROOT
BRANCH   1  11
HETATM   11  S   LIG     1      15.893  35.506  20.446  1.00  0.00    -0.112 SA
HETATM   12  C   LIG     1      16.745  34.868  21.921  1.00  0.00     0.097 C 
ENDBRANCH   1  11
TORSDOF 1
ENDMDL
MODEL 18
REMARK VINA RESULT:      -3.9      6.482      8.591
REMARK  1 active torsions:
REMARK  status: ('A' for Active; 'I' for Inactive)
REMARK    1  A    between atoms: S_2  and  C_3 
ROOT
HETATM    1  C   LIG     1      15.372  32.618  16.292  1.00  0.00     0.127 A 
HETATM    2  C   LIG     1      15.165  32.541  17.674  1.00  0.00     0.139 A 
HETATM    3  N   LIG     1      15.769  33.395  18.543  1.00  0.00    -0.253 NA
HETATM    4  C   LIG     1      15.549  33.300  19.881  1.00  0.00     0.137 A 
HETATM    5  C   LIG     1      14.691  32.311  20.372  1.00  0.00     0.138 A 
HETATM    6  N   LIG     1      14.087  31.455  19.505  1.00  0.00    -0.238 NA
HETATM    7  C   LIG     1      14.304  31.547  18.168  1.00  0.00     0.182 A 
HETATM    8  N   LIG     1      13.696  30.688  17.309  1.00  0.00    -0.220 NA
HETATM    9  C   LIG     1      13.912  30.779  15.970  1.00  0.00     0.236 A 
HETATM   10  N   LIG     1      14.742  31.734  15.472  1.00  0.00    -0.233 NA
ENDROOT
BRANCH   1  11
HETATM   11  S   LIG     1      16.457  33.858  15.580  1.00  0.00    -0.112 SA
HETATM   12  C   LIG     1      16.834  32.855  14.110  1.00  0.00     0.097 C 
ENDBRANCH   1  11
TORSDOF 1
ENDMDL
MODEL 19
REMARK VINA RESULT:      -3.2     19.752     20.831
REMARK  1 active torsions:
REMARK  status: ('A' for Active; 'I' for Inactive)
REMARK    1  A    between atoms: S_2  and  C_3 
ROOT
HETATM    1  C   LIG     1      14.077  18.805  12.034  1.00  0.00     0.127 A 
HETATM    2  C   LIG     1      14.542  18.855  13.352  1.00  0.00     0.139 A 
HETATM    3  N   LIG     1      13.879  18.251  14.375  1.00  0.00    -0.253 NA
HETATM    4  C   LIG     1      14.354  18.313  15.647  1.00  0.00     0.137 A 
HETATM    5  C   LIG     1      15.540  19.007  15.910  1.00  0.00     0.138 A 
HETATM    6  N   LIG     1      16.204  19.612  14.889  1.00  0.00    -0.238 NA
HETATM    7  C   LIG     1      15.733  19.553  13.616  1.00  0.00     0.182 A 
HETATM    8  N   LIG     1      16.403  20.159  12.603  1.00  0.00    -0.220 NA
HETATM    9  C   LIG     1      15.932  20.101  11.329  1.00  0.00     0.236 A 
HETATM   10  N   LIG     1      14.781  19.431  11.053  1.00  0.00    -0.233 NA
ENDROOT
BRANCH   1  11
HETATM   11  S   LIG     1      12.564  17.937  11.612  1.00  0.00    -0.112 SA
HETATM   12  C   LIG     1      12.353  18.823  10.037  1.00  0.00     0.097 C 
ENDBRANCH   1  11
TORSDOF 1
ENDMDL
