REMARK  1 active torsions:
REMARK  status: ('A' for Active; 'I' for Inactive)
REMARK    1  A    between atoms: S_2  and  C_3 
ROOT
HETATM    1  C   LIG     1       0.892   0.118  -0.879  1.00  0.00     0.127 A 
HETATM    2  C   LIG     1      -0.388  -0.058  -0.342  1.00  0.00     0.139 A 
HETATM    3  N   LIG     1      -0.863  -1.284   0.005  1.00  0.00    -0.253 NA
HETATM    4  C   LIG     1      -2.110  -1.427   0.527  1.00  0.00     0.137 A 
HETATM    5  C   LIG     1      -2.917  -0.299   0.710  1.00  0.00     0.138 A 
HETATM    6  N   LIG     1      -2.444   0.928   0.363  1.00  0.00    -0.238 NA
HETATM    7  C   LIG     1      -1.199   1.075  -0.159  1.00  0.00     0.182 A 
HETATM    8  N   LIG     1      -0.735   2.304  -0.502  1.00  0.00    -0.220 NA
HETATM    9  C   LIG     1       0.511   2.453  -1.025  1.00  0.00     0.236 A 
HETATM   10  N   LIG     1       1.311   1.369  -1.210  1.00  0.00    -0.233 NA
ENDROOT
BRANCH   1  11
HETATM   11  S   LIG     1       1.990  -1.276  -1.146  1.00  0.00    -0.112 SA
HETATM   12  C   LIG     1       2.747  -1.149   0.503  1.00  0.00     0.097 C 
ENDBRANCH   1  11
TORSDOF 1
