REMARK  5 active torsions:
REMARK  status: ('A' for Active; 'I' for Inactive)
REMARK       I    between atoms: ND2_1  and  CG_2 
REMARK    1  A    between atoms: CG_2  and  CB_3 
REMARK    2  A    between atoms: CB_3  and  CA_4 
REMARK    3  A    between atoms: CA_4  and  C_6 
REMARK    4  A    between atoms: CA_4  and  N_5 
REMARK    5  A    between atoms: C_6  and  O_7 
ROOT
ATOM      1  CA  ASN A   1      -0.774  -0.452  -0.222  1.00  0.00     0.323 C 
ENDROOT
BRANCH   1   2
ATOM      2  CB  ASN A   1       0.365   0.514  -0.606  1.00  0.00     0.149 C 
BRANCH   2   3
ATOM      3  CG  ASN A   1       1.687  -0.193  -0.684  1.00  0.00     0.217 C 
ATOM      4  ND2 ASN A   1       2.587  -0.172   0.424  1.00  0.00    -0.370 N 
ATOM      5 1HD2 ASN A   1       3.501  -0.675   0.370  1.00  0.00     0.159 HD
ATOM      6 2HD2 ASN A   1       2.341   0.337   1.302  1.00  0.00     0.159 HD
ATOM      7  OD1 ASN A   1       1.992  -0.836  -1.723  1.00  0.00    -0.274 OA
ENDBRANCH   2   3
ENDBRANCH   1   2
BRANCH   1   8
ATOM      8  C   ASN A   1      -2.099   0.248  -0.321  1.00  0.00     0.174 C 
ATOM      9  OXT ASN A   1      -2.969  -0.160  -1.136  1.00  0.00    -0.648 OA
BRANCH   8  10
ATOM     10  O   ASN A   1      -2.369   1.348   0.488  1.00  0.00    -0.775 OA
ATOM     11  H   ASN A   1      -3.258   1.829   0.431  1.00  0.00     0.167 HD
ENDBRANCH   8  10
ENDBRANCH   1   8
BRANCH   1  12
ATOM     12  N   ASN A   1      -0.610  -0.979   1.136  1.00  0.00     0.093 N 
ATOM     13  H1  ASN A   1      -0.411  -0.194   1.798  1.00  0.00     0.314 HD
ATOM     14  H2  ASN A   1       0.214  -1.623   1.154  1.00  0.00     0.314 HD
ENDBRANCH   1  12
TORSDOF 5
