MODEL 1
REMARK VINA RESULT:      -5.0      0.000      0.000
REMARK  5 active torsions:
REMARK  status: ('A' for Active; 'I' for Inactive)
REMARK       I    between atoms: ND2_1  and  CG_2 
REMARK    1  A    between atoms: CG_2  and  CB_3 
REMARK    2  A    between atoms: CB_3  and  CA_4 
REMARK    3  A    between atoms: CA_4  and  C_6 
REMARK    4  A    between atoms: CA_4  and  N_5 
REMARK    5  A    between atoms: C_6  and  O_7 
ROOT
ATOM      1  CA  ASN A   1      17.193  36.889  22.724  1.00  0.00     0.323 C 
ENDROOT
BRANCH   1   2
ATOM      2  CB  ASN A   1      16.632  35.479  22.447  1.00  0.00     0.149 C 
BRANCH   2   3
ATOM      3  CG  ASN A   1      15.844  35.438  21.170  1.00  0.00     0.217 C 
ATOM      4  ND2 ASN A   1      14.436  35.674  21.179  1.00  0.00    -0.370 N 
ATOM      5 1HD2 ASN A   1      13.893  35.656  20.287  1.00  0.00     0.159 HD
ATOM      6 2HD2 ASN A   1      13.934  35.875  22.072  1.00  0.00     0.159 HD
ATOM      7  OD1 ASN A   1      16.434  35.226  20.078  1.00  0.00    -0.274 OA
ENDBRANCH   2   3
ENDBRANCH   1   2
BRANCH   1   8
ATOM      8  C   ASN A   1      16.230  37.669  23.573  1.00  0.00     0.174 C 
ATOM      9  OXT ASN A   1      16.499  37.899  24.783  1.00  0.00    -0.648 OA
BRANCH   8  10
ATOM     10  O   ASN A   1      15.041  38.141  23.026  1.00  0.00    -0.775 OA
ATOM     11  H   ASN A   1      14.657  39.034  23.308  1.00  0.00     0.167 HD
ENDBRANCH   8  10
ENDBRANCH   1   8
BRANCH   1  12
ATOM     12  N   ASN A   1      17.448  37.629  21.485  1.00  0.00     0.093 N 
ATOM     13  H1  ASN A   1      16.625  38.234  21.258  1.00  0.00     0.314 HD
ATOM     14  H2  ASN A   1      17.564  36.948  20.699  1.00  0.00     0.314 HD
ENDBRANCH   1  12
TORSDOF 5
ENDMDL
MODEL 2
REMARK VINA RESULT:      -4.7      3.318      4.342
REMARK  5 active torsions:
REMARK  status: ('A' for Active; 'I' for Inactive)
REMARK       I    between atoms: ND2_1  and  CG_2 
REMARK    1  A    between atoms: CG_2  and  CB_3 
REMARK    2  A    between atoms: CB_3  and  CA_4 
REMARK    3  A    between atoms: CA_4  and  C_6 
REMARK    4  A    between atoms: CA_4  and  N_5 
REMARK    5  A    between atoms: C_6  and  O_7 
ROOT
ATOM      1  CA  ASN A   1      15.778  33.843  20.040  1.00  0.00     0.323 C 
ENDROOT
BRANCH   1   2
ATOM      2  CB  ASN A   1      15.288  32.421  19.697  1.00  0.00     0.149 C 
BRANCH   2   3
ATOM      3  CG  ASN A   1      14.923  32.297  18.246  1.00  0.00     0.217 C 
ATOM      4  ND2 ASN A   1      13.598  31.933  17.861  1.00  0.00    -0.370 N 
ATOM      5 1HD2 ASN A   1      13.344  31.859  16.850  1.00  0.00     0.159 HD
ATOM      6 2HD2 ASN A   1      12.865  31.745  18.581  1.00  0.00     0.159 HD
ATOM      7  OD1 ASN A   1      15.784  32.546  17.361  1.00  0.00    -0.274 OA
ENDBRANCH   2   3
ENDBRANCH   1   2
BRANCH   1   8
ATOM      8  C   ASN A   1      15.178  34.295  21.340  1.00  0.00     0.174 C 
ATOM      9  OXT ASN A   1      15.847  35.015  22.127  1.00  0.00    -0.648 OA
BRANCH   8  10
ATOM     10  O   ASN A   1      13.880  33.920  21.678  1.00  0.00    -0.775 OA
ATOM     11  H   ASN A   1      13.693  33.410  22.532  1.00  0.00     0.167 HD
ENDBRANCH   8  10
ENDBRANCH   1   8
BRANCH   1  12
ATOM     12  N   ASN A   1      15.433  34.808  18.991  1.00  0.00     0.093 N 
ATOM     13  H1  ASN A   1      14.739  34.383  18.334  1.00  0.00     0.314 HD
ATOM     14  H2  ASN A   1      16.293  35.032  18.439  1.00  0.00     0.314 HD
ENDBRANCH   1  12
TORSDOF 5
ENDMDL
MODEL 3
REMARK VINA RESULT:      -4.6      1.748      3.612
REMARK  5 active torsions:
REMARK  status: ('A' for Active; 'I' for Inactive)
REMARK       I    between atoms: ND2_1  and  CG_2 
REMARK    1  A    between atoms: CG_2  and  CB_3 
REMARK    2  A    between atoms: CB_3  and  CA_4 
REMARK    3  A    between atoms: CA_4  and  C_6 
REMARK    4  A    between atoms: CA_4  and  N_5 
REMARK    5  A    between atoms: C_6  and  O_7 
ROOT
ATOM      1  CA  ASN A   1      16.963  35.733  21.532  1.00  0.00     0.323 C 
ENDROOT
BRANCH   1   2
ATOM      2  CB  ASN A   1      17.142  37.253  21.724  1.00  0.00     0.149 C 
BRANCH   2   3
ATOM      3  CG  ASN A   1      16.555  37.719  23.025  1.00  0.00     0.217 C 
ATOM      4  ND2 ASN A   1      15.193  38.140  23.096  1.00  0.00    -0.370 N 
ATOM      5 1HD2 ASN A   1      14.786  38.453  24.006  1.00  0.00     0.159 HD
ATOM      6 2HD2 ASN A   1      14.587  38.133  22.246  1.00  0.00     0.159 HD
ATOM      7  OD1 ASN A   1      17.261  37.709  24.068  1.00  0.00    -0.274 OA
ENDBRANCH   2   3
ENDBRANCH   1   2
BRANCH   1   8
ATOM      8  C   ASN A   1      15.752  35.459  20.688  1.00  0.00     0.174 C 
ATOM      9  OXT ASN A   1      15.886  35.021  19.514  1.00  0.00    -0.648 OA
BRANCH   8  10
ATOM     10  O   ASN A   1      14.478  35.687  21.201  1.00  0.00    -0.775 OA
ATOM     11  H   ASN A   1      14.142  35.170  22.005  1.00  0.00     0.167 HD
ENDBRANCH   8  10
ENDBRANCH   1   8
BRANCH   1  12
ATOM     12  N   ASN A   1      16.825  35.033  22.812  1.00  0.00     0.093 N 
ATOM     13  H1  ASN A   1      17.312  34.109  22.764  1.00  0.00     0.314 HD
ATOM     14  H2  ASN A   1      15.811  34.846  22.990  1.00  0.00     0.314 HD
ENDBRANCH   1  12
TORSDOF 5
ENDMDL
MODEL 4
REMARK VINA RESULT:      -4.6      1.785      2.053
REMARK  5 active torsions:
REMARK  status: ('A' for Active; 'I' for Inactive)
REMARK       I    between atoms: ND2_1  and  CG_2 
REMARK    1  A    between atoms: CG_2  and  CB_3 
REMARK    2  A    between atoms: CB_3  and  CA_4 
REMARK    3  A    between atoms: CA_4  and  C_6 
REMARK    4  A    between atoms: CA_4  and  N_5 
REMARK    5  A    between atoms: C_6  and  O_7 
ROOT
ATOM      1  CA  ASN A   1      16.649  37.484  23.309  1.00  0.00     0.323 C 
ENDROOT
BRANCH   1   2
ATOM      2  CB  ASN A   1      16.763  36.030  22.806  1.00  0.00     0.149 C 
BRANCH   2   3
ATOM      3  CG  ASN A   1      16.226  35.884  21.412  1.00  0.00     0.217 C 
ATOM      4  ND2 ASN A   1      17.113  35.830  20.295  1.00  0.00    -0.370 N 
ATOM      5 1HD2 ASN A   1      16.736  35.717  19.327  1.00  0.00     0.159 HD
ATOM      6 2HD2 ASN A   1      18.147  35.894  20.431  1.00  0.00     0.159 HD
ATOM      7  OD1 ASN A   1      14.985  35.778  21.227  1.00  0.00    -0.274 OA
ENDBRANCH   2   3
ENDBRANCH   1   2
BRANCH   1   8
ATOM      8  C   ASN A   1      16.992  37.552  24.770  1.00  0.00     0.174 C 
ATOM      9  OXT ASN A   1      17.149  38.669  25.330  1.00  0.00    -0.648 OA
BRANCH   8  10
ATOM     10  O   ASN A   1      17.137  36.380  25.508  1.00  0.00    -0.775 OA
ATOM     11  H   ASN A   1      16.401  35.685  25.527  1.00  0.00     0.167 HD
ENDBRANCH   8  10
ENDBRANCH   1   8
BRANCH   1  12
ATOM     12  N   ASN A   1      15.304  38.030  23.106  1.00  0.00     0.093 N 
ATOM     13  H1  ASN A   1      14.589  37.302  23.337  1.00  0.00     0.314 HD
ATOM     14  H2  ASN A   1      15.187  38.278  22.097  1.00  0.00     0.314 HD
ENDBRANCH   1  12
TORSDOF 5
ENDMDL
MODEL 5
REMARK VINA RESULT:      -4.6      1.919      4.175
REMARK  5 active torsions:
REMARK  status: ('A' for Active; 'I' for Inactive)
REMARK       I    between atoms: ND2_1  and  CG_2 
REMARK    1  A    between atoms: CG_2  and  CB_3 
REMARK    2  A    between atoms: CB_3  and  CA_4 
REMARK    3  A    between atoms: CA_4  and  C_6 
REMARK    4  A    between atoms: CA_4  and  N_5 
REMARK    5  A    between atoms: C_6  and  O_7 
ROOT
ATOM      1  CA  ASN A   1      15.368  34.560  21.389  1.00  0.00     0.323 C 
ENDROOT
BRANCH   1   2
ATOM      2  CB  ASN A   1      16.751  35.008  21.904  1.00  0.00     0.149 C 
BRANCH   2   3
ATOM      3  CG  ASN A   1      17.179  36.306  21.282  1.00  0.00     0.217 C 
ATOM      4  ND2 ASN A   1      17.908  36.316  20.054  1.00  0.00    -0.370 N 
ATOM      5 1HD2 ASN A   1      18.193  37.221  19.619  1.00  0.00     0.159 HD
ATOM      6 2HD2 ASN A   1      18.156  35.423  19.574  1.00  0.00     0.159 HD
ATOM      7  OD1 ASN A   1      16.865  37.395  21.830  1.00  0.00    -0.274 OA
ENDBRANCH   2   3
ENDBRANCH   1   2
BRANCH   1   8
ATOM      8  C   ASN A   1      15.513  33.844  20.077  1.00  0.00     0.174 C 
ATOM      9  OXT ASN A   1      15.653  32.592  20.054  1.00  0.00    -0.648 OA
BRANCH   8  10
ATOM     10  O   ASN A   1      15.493  34.562  18.885  1.00  0.00    -0.775 OA
ATOM     11  H   ASN A   1      15.926  35.475  18.821  1.00  0.00     0.167 HD
ENDBRANCH   8  10
ENDBRANCH   1   8
BRANCH   1  12
ATOM     12  N   ASN A   1      14.454  35.694  21.219  1.00  0.00     0.093 N 
ATOM     13  H1  ASN A   1      13.884  35.561  20.352  1.00  0.00     0.314 HD
ATOM     14  H2  ASN A   1      15.015  36.568  21.096  1.00  0.00     0.314 HD
ENDBRANCH   1  12
TORSDOF 5
ENDMDL
MODEL 6
REMARK VINA RESULT:      -4.5      2.773      3.747
REMARK  5 active torsions:
REMARK  status: ('A' for Active; 'I' for Inactive)
REMARK       I    between atoms: ND2_1  and  CG_2 
REMARK    1  A    between atoms: CG_2  and  CB_3 
REMARK    2  A    between atoms: CB_3  and  CA_4 
REMARK    3  A    between atoms: CA_4  and  C_6 
REMARK    4  A    between atoms: CA_4  and  N_5 
REMARK    5  A    between atoms: C_6  and  O_7 
ROOT
ATOM      1  CA  ASN A   1      17.688  37.347  24.713  1.00  0.00     0.323 C 
ENDROOT
BRANCH   1   2
ATOM      2  CB  ASN A   1      16.863  37.182  23.420  1.00  0.00     0.149 C 
BRANCH   2   3
ATOM      3  CG  ASN A   1      16.779  38.468  22.651  1.00  0.00     0.217 C 
ATOM      4  ND2 ASN A   1      17.780  38.806  21.690  1.00  0.00    -0.370 N 
ATOM      5 1HD2 ASN A   1      17.711  39.696  21.148  1.00  0.00     0.159 HD
ATOM      6 2HD2 ASN A   1      18.585  38.165  21.512  1.00  0.00     0.159 HD
ATOM      7  OD1 ASN A   1      15.801  39.242  22.830  1.00  0.00    -0.274 OA
ENDBRANCH   2   3
ENDBRANCH   1   2
BRANCH   1   8
ATOM      8  C   ASN A   1      17.577  36.109  25.556  1.00  0.00     0.174 C 
ATOM      9  OXT ASN A   1      17.413  34.986  25.010  1.00  0.00    -0.648 OA
BRANCH   8  10
ATOM     10  O   ASN A   1      17.657  36.200  26.943  1.00  0.00    -0.775 OA
ATOM     11  H   ASN A   1      17.932  35.402  27.501  1.00  0.00     0.167 HD
ENDBRANCH   8  10
ENDBRANCH   1   8
BRANCH   1  12
ATOM     12  N   ASN A   1      17.248  38.504  25.499  1.00  0.00     0.093 N 
ATOM     13  H1  ASN A   1      17.353  39.377  24.932  1.00  0.00     0.314 HD
ATOM     14  H2  ASN A   1      17.864  38.598  26.339  1.00  0.00     0.314 HD
ENDBRANCH   1  12
TORSDOF 5
ENDMDL
MODEL 7
REMARK VINA RESULT:      -4.5      2.866      3.571
REMARK  5 active torsions:
REMARK  status: ('A' for Active; 'I' for Inactive)
REMARK       I    between atoms: ND2_1  and  CG_2 
REMARK    1  A    between atoms: CG_2  and  CB_3 
REMARK    2  A    between atoms: CB_3  and  CA_4 
REMARK    3  A    between atoms: CA_4  and  C_6 
REMARK    4  A    between atoms: CA_4  and  N_5 
REMARK    5  A    between atoms: C_6  and  O_7 
ROOT
ATOM      1  CA  ASN A   1      17.186  36.207  25.035  1.00  0.00     0.323 C 
ENDROOT
BRANCH   1   2
ATOM      2  CB  ASN A   1      17.393  37.572  24.348  1.00  0.00     0.149 C 
BRANCH   2   3
ATOM      3  CG  ASN A   1      16.591  37.682  23.083  1.00  0.00     0.217 C 
ATOM      4  ND2 ASN A   1      15.246  38.158  23.117  1.00  0.00    -0.370 N 
ATOM      5 1HD2 ASN A   1      14.695  38.244  22.234  1.00  0.00     0.159 HD
ATOM      6 2HD2 ASN A   1      14.800  38.434  24.020  1.00  0.00     0.159 HD
ATOM      7  OD1 ASN A   1      17.119  37.381  21.980  1.00  0.00    -0.274 OA
ENDBRANCH   2   3
ENDBRANCH   1   2
BRANCH   1   8
ATOM      8  C   ASN A   1      18.242  35.990  26.080  1.00  0.00     0.174 C 
ATOM      9  OXT ASN A   1      18.535  34.822  26.449  1.00  0.00    -0.648 OA
BRANCH   8  10
ATOM     10  O   ASN A   1      18.900  37.080  26.643  1.00  0.00    -0.775 OA
ATOM     11  H   ASN A   1      18.494  37.589  27.418  1.00  0.00     0.167 HD
ENDBRANCH   8  10
ENDBRANCH   1   8
BRANCH   1  12
ATOM     12  N   ASN A   1      17.226  35.100  24.076  1.00  0.00     0.093 N 
ATOM     13  H1  ASN A   1      16.272  34.946  23.674  1.00  0.00     0.314 HD
ATOM     14  H2  ASN A   1      17.501  34.224  24.577  1.00  0.00     0.314 HD
ENDBRANCH   1  12
TORSDOF 5
ENDMDL
MODEL 8
REMARK VINA RESULT:      -4.4      6.142      7.832
REMARK  5 active torsions:
REMARK  status: ('A' for Active; 'I' for Inactive)
REMARK       I    between atoms: ND2_1  and  CG_2 
REMARK    1  A    between atoms: CG_2  and  CB_3 
REMARK    2  A    between atoms: CB_3  and  CA_4 
REMARK    3  A    between atoms: CA_4  and  C_6 
REMARK    4  A    between atoms: CA_4  and  N_5 
REMARK    5  A    between atoms: C_6  and  O_7 
ROOT
ATOM      1  CA  ASN A   1      14.133  32.601  17.111  1.00  0.00     0.323 C 
ENDROOT
BRANCH   1   2
ATOM      2  CB  ASN A   1      14.348  31.498  16.056  1.00  0.00     0.149 C 
BRANCH   2   3
ATOM      3  CG  ASN A   1      13.146  30.608  15.932  1.00  0.00     0.217 C 
ATOM      4  ND2 ASN A   1      13.004  29.731  14.814  1.00  0.00    -0.370 N 
ATOM      5 1HD2 ASN A   1      12.171  29.105  14.738  1.00  0.00     0.159 HD
ATOM      6 2HD2 ASN A   1      13.732  29.698  14.066  1.00  0.00     0.159 HD
ATOM      7  OD1 ASN A   1      12.270  30.611  16.837  1.00  0.00    -0.274 OA
ENDBRANCH   2   3
ENDBRANCH   1   2
BRANCH   1   8
ATOM      8  C   ASN A   1      15.174  33.672  16.957  1.00  0.00     0.174 C 
ATOM      9  OXT ASN A   1      15.920  33.686  15.942  1.00  0.00    -0.648 OA
BRANCH   8  10
ATOM     10  O   ASN A   1      15.315  34.653  17.935  1.00  0.00    -0.775 OA
ATOM     11  H   ASN A   1      15.258  34.419  18.918  1.00  0.00     0.167 HD
ENDBRANCH   8  10
ENDBRANCH   1   8
BRANCH   1  12
ATOM     12  N   ASN A   1      14.189  32.070  18.477  1.00  0.00     0.093 N 
ATOM     13  H1  ASN A   1      13.962  32.829  19.160  1.00  0.00     0.314 HD
ATOM     14  H2  ASN A   1      15.164  31.748  18.677  1.00  0.00     0.314 HD
ENDBRANCH   1  12
TORSDOF 5
ENDMDL
MODEL 9
REMARK VINA RESULT:      -4.4      3.009      4.101
REMARK  5 active torsions:
REMARK  status: ('A' for Active; 'I' for Inactive)
REMARK       I    between atoms: ND2_1  and  CG_2 
REMARK    1  A    between atoms: CG_2  and  CB_3 
REMARK    2  A    between atoms: CB_3  and  CA_4 
REMARK    3  A    between atoms: CA_4  and  C_6 
REMARK    4  A    between atoms: CA_4  and  N_5 
REMARK    5  A    between atoms: C_6  and  O_7 
ROOT
ATOM      1  CA  ASN A   1      18.213  38.869  21.406  1.00  0.00     0.323 C 
ENDROOT
BRANCH   1   2
ATOM      2  CB  ASN A   1      17.397  37.595  21.702  1.00  0.00     0.149 C 
BRANCH   2   3
ATOM      3  CG  ASN A   1      16.674  37.693  23.014  1.00  0.00     0.217 C 
ATOM      4  ND2 ASN A   1      15.324  38.155  23.065  1.00  0.00    -0.370 N 
ATOM      5 1HD2 ASN A   1      14.820  38.212  23.978  1.00  0.00     0.159 HD
ATOM      6 2HD2 ASN A   1      14.822  38.434  22.193  1.00  0.00     0.159 HD
ATOM      7  OD1 ASN A   1      17.251  37.337  24.075  1.00  0.00    -0.274 OA
ENDBRANCH   2   3
ENDBRANCH   1   2
BRANCH   1   8
ATOM      8  C   ASN A   1      19.086  38.654  20.203  1.00  0.00     0.174 C 
ATOM      9  OXT ASN A   1      18.914  37.644  19.471  1.00  0.00    -0.648 OA
BRANCH   8  10
ATOM     10  O   ASN A   1      20.086  39.571  19.895  1.00  0.00    -0.775 OA
ATOM     11  H   ASN A   1      20.615  40.029  20.627  1.00  0.00     0.167 HD
ENDBRANCH   8  10
ENDBRANCH   1   8
BRANCH   1  12
ATOM     12  N   ASN A   1      19.050  39.260  22.544  1.00  0.00     0.093 N 
ATOM     13  H1  ASN A   1      19.546  40.155  22.327  1.00  0.00     0.314 HD
ATOM     14  H2  ASN A   1      19.779  38.525  22.698  1.00  0.00     0.314 HD
ENDBRANCH   1  12
TORSDOF 5
ENDMDL
MODEL 10
REMARK VINA RESULT:      -4.3      2.063      3.110
REMARK  5 active torsions:
REMARK  status: ('A' for Active; 'I' for Inactive)
REMARK       I    between atoms: ND2_1  and  CG_2 
REMARK    1  A    between atoms: CG_2  and  CB_3 
REMARK    2  A    between atoms: CB_3  and  CA_4 
REMARK    3  A    between atoms: CA_4  and  C_6 
REMARK    4  A    between atoms: CA_4  and  N_5 
REMARK    5  A    between atoms: C_6  and  O_7 
ROOT
ATOM      1  CA  ASN A   1      16.933  37.726  22.162  1.00  0.00     0.323 C 
ENDROOT
BRANCH   1   2
ATOM      2  CB  ASN A   1      18.229  38.556  22.050  1.00  0.00     0.149 C 
BRANCH   2   3
ATOM      3  CG  ASN A   1      18.784  38.528  20.655  1.00  0.00     0.217 C 
ATOM      4  ND2 ASN A   1      19.400  39.689  20.097  1.00  0.00    -0.370 N 
ATOM      5 1HD2 ASN A   1      19.795  39.662  19.131  1.00  0.00     0.159 HD
ATOM      6 2HD2 ASN A   1      19.470  40.573  20.648  1.00  0.00     0.159 HD
ATOM      7  OD1 ASN A   1      18.734  37.464  19.983  1.00  0.00    -0.274 OA
ENDBRANCH   2   3
ENDBRANCH   1   2
BRANCH   1   8
ATOM      8  C   ASN A   1      16.241  38.024  23.461  1.00  0.00     0.174 C 
ATOM      9  OXT ASN A   1      16.918  38.308  24.486  1.00  0.00    -0.648 OA
BRANCH   8  10
ATOM     10  O   ASN A   1      14.852  37.989  23.536  1.00  0.00    -0.775 OA
ATOM     11  H   ASN A   1      14.355  37.107  23.550  1.00  0.00     0.167 HD
ENDBRANCH   8  10
ENDBRANCH   1   8
BRANCH   1  12
ATOM     12  N   ASN A   1      17.196  36.287  22.077  1.00  0.00     0.093 N 
ATOM     13  H1  ASN A   1      16.702  35.886  21.247  1.00  0.00     0.314 HD
ATOM     14  H2  ASN A   1      16.811  35.820  22.930  1.00  0.00     0.314 HD
ENDBRANCH   1  12
TORSDOF 5
ENDMDL
MODEL 11
REMARK VINA RESULT:      -4.2      5.693      7.292
REMARK  5 active torsions:
REMARK  status: ('A' for Active; 'I' for Inactive)
REMARK       I    between atoms: ND2_1  and  CG_2 
REMARK    1  A    between atoms: CG_2  and  CB_3 
REMARK    2  A    between atoms: CB_3  and  CA_4 
REMARK    3  A    between atoms: CA_4  and  C_6 
REMARK    4  A    between atoms: CA_4  and  N_5 
REMARK    5  A    between atoms: C_6  and  O_7 
ROOT
ATOM      1  CA  ASN A   1      14.778  32.384  17.475  1.00  0.00     0.323 C 
ENDROOT
BRANCH   1   2
ATOM      2  CB  ASN A   1      13.619  31.442  17.090  1.00  0.00     0.149 C 
BRANCH   2   3
ATOM      3  CG  ASN A   1      13.817  30.851  15.724  1.00  0.00     0.217 C 
ATOM      4  ND2 ASN A   1      12.842  29.970  15.167  1.00  0.00    -0.370 N 
ATOM      5 1HD2 ASN A   1      12.978  29.570  14.212  1.00  0.00     0.159 HD
ATOM      6 2HD2 ASN A   1      11.979  29.722  15.701  1.00  0.00     0.159 HD
ATOM      7  OD1 ASN A   1      14.837  31.158  15.052  1.00  0.00    -0.274 OA
ENDBRANCH   2   3
ENDBRANCH   1   2
BRANCH   1   8
ATOM      8  C   ASN A   1      14.970  32.383  18.964  1.00  0.00     0.174 C 
ATOM      9  OXT ASN A   1      15.728  33.233  19.503  1.00  0.00    -0.648 OA
BRANCH   8  10
ATOM     10  O   ASN A   1      14.310  31.445  19.752  1.00  0.00    -0.775 OA
ATOM     11  H   ASN A   1      14.771  30.590  20.038  1.00  0.00     0.167 HD
ENDBRANCH   8  10
ENDBRANCH   1   8
BRANCH   1  12
ATOM     12  N   ASN A   1      14.540  33.758  17.022  1.00  0.00     0.093 N 
ATOM     13  H1  ASN A   1      15.129  33.960  16.182  1.00  0.00     0.314 HD
ATOM     14  H2  ASN A   1      14.830  34.420  17.778  1.00  0.00     0.314 HD
ENDBRANCH   1  12
TORSDOF 5
ENDMDL
MODEL 12
REMARK VINA RESULT:      -4.2      6.336      7.598
REMARK  5 active torsions:
REMARK  status: ('A' for Active; 'I' for Inactive)
REMARK       I    between atoms: ND2_1  and  CG_2 
REMARK    1  A    between atoms: CG_2  and  CB_3 
REMARK    2  A    between atoms: CB_3  and  CA_4 
REMARK    3  A    between atoms: CA_4  and  C_6 
REMARK    4  A    between atoms: CA_4  and  N_5 
REMARK    5  A    between atoms: C_6  and  O_7 
ROOT
ATOM      1  CA  ASN A   1      14.039  32.365  16.956  1.00  0.00     0.323 C 
ENDROOT
BRANCH   1   2
ATOM      2  CB  ASN A   1      14.711  31.386  15.972  1.00  0.00     0.149 C 
BRANCH   2   3
ATOM      3  CG  ASN A   1      15.816  32.049  15.201  1.00  0.00     0.217 C 
ATOM      4  ND2 ASN A   1      16.433  33.238  15.696  1.00  0.00    -0.370 N 
ATOM      5 1HD2 ASN A   1      17.209  33.690  15.162  1.00  0.00     0.159 HD
ATOM      6 2HD2 ASN A   1      16.123  33.665  16.597  1.00  0.00     0.159 HD
ATOM      7  OD1 ASN A   1      16.224  31.536  14.126  1.00  0.00    -0.274 OA
ENDBRANCH   2   3
ENDBRANCH   1   2
BRANCH   1   8
ATOM      8  C   ASN A   1      14.670  32.245  18.314  1.00  0.00     0.174 C 
ATOM      9  OXT ASN A   1      15.635  32.992  18.629  1.00  0.00    -0.648 OA
BRANCH   8  10
ATOM     10  O   ASN A   1      14.189  31.311  19.227  1.00  0.00    -0.775 OA
ATOM     11  H   ASN A   1      14.590  31.236  20.154  1.00  0.00     0.167 HD
ENDBRANCH   8  10
ENDBRANCH   1   8
BRANCH   1  12
ATOM     12  N   ASN A   1      12.598  32.119  17.073  1.00  0.00     0.093 N 
ATOM     13  H1  ASN A   1      12.082  32.713  16.385  1.00  0.00     0.314 HD
ATOM     14  H2  ASN A   1      12.282  32.398  18.030  1.00  0.00     0.314 HD
ENDBRANCH   1  12
TORSDOF 5
ENDMDL
MODEL 13
REMARK VINA RESULT:      -4.1      6.394      7.152
REMARK  5 active torsions:
REMARK  status: ('A' for Active; 'I' for Inactive)
REMARK       I    between atoms: ND2_1  and  CG_2 
REMARK    1  A    between atoms: CG_2  and  CB_3 
REMARK    2  A    between atoms: CB_3  and  CA_4 
REMARK    3  A    between atoms: CA_4  and  C_6 
REMARK    4  A    between atoms: CA_4  and  N_5 
REMARK    5  A    between atoms: C_6  and  O_7 
ROOT
ATOM      1  CA  ASN A   1      15.380  32.765  17.615  1.00  0.00     0.323 C 
ENDROOT
BRANCH   1   2
ATOM      2  CB  ASN A   1      15.497  32.744  16.077  1.00  0.00     0.149 C 
BRANCH   2   3
ATOM      3  CG  ASN A   1      16.688  33.524  15.602  1.00  0.00     0.217 C 
ATOM      4  ND2 ASN A   1      17.840  32.851  15.095  1.00  0.00    -0.370 N 
ATOM      5 1HD2 ASN A   1      18.663  33.398  14.755  1.00  0.00     0.159 HD
ATOM      6 2HD2 ASN A   1      17.873  31.809  15.051  1.00  0.00     0.159 HD
ATOM      7  OD1 ASN A   1      16.659  34.783  15.621  1.00  0.00    -0.274 OA
ENDBRANCH   2   3
ENDBRANCH   1   2
BRANCH   1   8
ATOM      8  C   ASN A   1      14.210  31.934  18.055  1.00  0.00     0.174 C 
ATOM      9  OXT ASN A   1      14.320  31.162  19.044  1.00  0.00    -0.648 OA
BRANCH   8  10
ATOM     10  O   ASN A   1      13.000  32.015  17.371  1.00  0.00    -0.775 OA
ATOM     11  H   ASN A   1      12.939  32.488  16.478  1.00  0.00     0.167 HD
ENDBRANCH   8  10
ENDBRANCH   1   8
BRANCH   1  12
ATOM     12  N   ASN A   1      15.223  34.127  18.133  1.00  0.00     0.093 N 
ATOM     13  H1  ASN A   1      14.292  34.509  17.846  1.00  0.00     0.314 HD
ATOM     14  H2  ASN A   1      15.958  34.740  17.710  1.00  0.00     0.314 HD
ENDBRANCH   1  12
TORSDOF 5
ENDMDL
MODEL 14
REMARK VINA RESULT:      -4.1      7.772      9.366
REMARK  5 active torsions:
REMARK  status: ('A' for Active; 'I' for Inactive)
REMARK       I    between atoms: ND2_1  and  CG_2 
REMARK    1  A    between atoms: CG_2  and  CB_3 
REMARK    2  A    between atoms: CB_3  and  CA_4 
REMARK    3  A    between atoms: CA_4  and  C_6 
REMARK    4  A    between atoms: CA_4  and  N_5 
REMARK    5  A    between atoms: C_6  and  O_7 
ROOT
ATOM      1  CA  ASN A   1      14.204  30.817  16.092  1.00  0.00     0.323 C 
ENDROOT
BRANCH   1   2
ATOM      2  CB  ASN A   1      13.072  30.314  15.174  1.00  0.00     0.149 C 
BRANCH   2   3
ATOM      3  CG  ASN A   1      13.529  29.179  14.304  1.00  0.00     0.217 C 
ATOM      4  ND2 ASN A   1      12.584  28.260  13.755  1.00  0.00    -0.370 N 
ATOM      5 1HD2 ASN A   1      12.905  27.479  13.141  1.00  0.00     0.159 HD
ATOM      6 2HD2 ASN A   1      11.564  28.361  13.954  1.00  0.00     0.159 HD
ATOM      7  OD1 ASN A   1      14.751  29.055  14.029  1.00  0.00    -0.274 OA
ENDBRANCH   2   3
ENDBRANCH   1   2
BRANCH   1   8
ATOM      8  C   ASN A   1      13.626  31.530  17.281  1.00  0.00     0.174 C 
ATOM      9  OXT ASN A   1      14.229  31.505  18.386  1.00  0.00    -0.648 OA
BRANCH   8  10
ATOM     10  O   ASN A   1      12.422  32.220  17.163  1.00  0.00    -0.775 OA
ATOM     11  H   ASN A   1      11.605  31.931  17.686  1.00  0.00     0.167 HD
ENDBRANCH   8  10
ENDBRANCH   1   8
BRANCH   1  12
ATOM     12  N   ASN A   1      15.117  31.723  15.388  1.00  0.00     0.093 N 
ATOM     13  H1  ASN A   1      15.410  31.293  14.480  1.00  0.00     0.314 HD
ATOM     14  H2  ASN A   1      15.979  31.854  15.966  1.00  0.00     0.314 HD
ENDBRANCH   1  12
TORSDOF 5
ENDMDL
MODEL 15
REMARK VINA RESULT:      -4.1      5.089      6.094
REMARK  5 active torsions:
REMARK  status: ('A' for Active; 'I' for Inactive)
REMARK       I    between atoms: ND2_1  and  CG_2 
REMARK    1  A    between atoms: CG_2  and  CB_3 
REMARK    2  A    between atoms: CB_3  and  CA_4 
REMARK    3  A    between atoms: CA_4  and  C_6 
REMARK    4  A    between atoms: CA_4  and  N_5 
REMARK    5  A    between atoms: C_6  and  O_7 
ROOT
ATOM      1  CA  ASN A   1      15.407  32.754  18.936  1.00  0.00     0.323 C 
ENDROOT
BRANCH   1   2
ATOM      2  CB  ASN A   1      14.652  32.502  17.616  1.00  0.00     0.149 C 
BRANCH   2   3
ATOM      3  CG  ASN A   1      15.268  33.257  16.474  1.00  0.00     0.217 C 
ATOM      4  ND2 ASN A   1      15.852  32.559  15.374  1.00  0.00    -0.370 N 
ATOM      5 1HD2 ASN A   1      16.270  33.088  14.576  1.00  0.00     0.159 HD
ATOM      6 2HD2 ASN A   1      15.862  31.515  15.349  1.00  0.00     0.159 HD
ATOM      7  OD1 ASN A   1      15.243  34.516  16.470  1.00  0.00    -0.274 OA
ENDBRANCH   2   3
ENDBRANCH   1   2
BRANCH   1   8
ATOM      8  C   ASN A   1      14.716  32.049  20.068  1.00  0.00     0.174 C 
ATOM      9  OXT ASN A   1      14.675  30.790  20.096  1.00  0.00    -0.648 OA
BRANCH   8  10
ATOM     10  O   ASN A   1      14.120  32.785  21.088  1.00  0.00    -0.775 OA
ATOM     11  H   ASN A   1      13.414  32.370  21.684  1.00  0.00     0.167 HD
ENDBRANCH   8  10
ENDBRANCH   1   8
BRANCH   1  12
ATOM     12  N   ASN A   1      15.502  34.183  19.248  1.00  0.00     0.093 N 
ATOM     13  H1  ASN A   1      14.567  34.542  19.549  1.00  0.00     0.314 HD
ATOM     14  H2  ASN A   1      15.775  34.703  18.383  1.00  0.00     0.314 HD
ENDBRANCH   1  12
TORSDOF 5
ENDMDL
MODEL 16
REMARK VINA RESULT:      -4.0      7.468      9.959
REMARK  5 active torsions:
REMARK  status: ('A' for Active; 'I' for Inactive)
REMARK       I    between atoms: ND2_1  and  CG_2 
REMARK    1  A    between atoms: CG_2  and  CB_3 
REMARK    2  A    between atoms: CB_3  and  CA_4 
REMARK    3  A    between atoms: CA_4  and  C_6 
REMARK    4  A    between atoms: CA_4  and  N_5 
REMARK    5  A    between atoms: C_6  and  O_7 
ROOT
ATOM      1  CA  ASN A   1      14.272  30.224  15.328  1.00  0.00     0.323 C 
ENDROOT
BRANCH   1   2
ATOM      2  CB  ASN A   1      14.814  31.636  15.628  1.00  0.00     0.149 C 
BRANCH   2   3
ATOM      3  CG  ASN A   1      14.244  32.188  16.903  1.00  0.00     0.217 C 
ATOM      4  ND2 ASN A   1      14.186  33.598  17.121  1.00  0.00    -0.370 N 
ATOM      5 1HD2 ASN A   1      13.778  33.978  18.004  1.00  0.00     0.159 HD
ATOM      6 2HD2 ASN A   1      14.541  34.264  16.400  1.00  0.00     0.159 HD
ATOM      7  OD1 ASN A   1      13.785  31.403  17.774  1.00  0.00    -0.274 OA
ENDBRANCH   2   3
ENDBRANCH   1   2
BRANCH   1   8
ATOM      8  C   ASN A   1      14.863  29.706  14.049  1.00  0.00     0.174 C 
ATOM      9  OXT ASN A   1      15.740  30.377  13.442  1.00  0.00    -0.648 OA
BRANCH   8  10
ATOM     10  O   ASN A   1      14.444  28.484  13.531  1.00  0.00    -0.775 OA
ATOM     11  H   ASN A   1      14.841  28.119  12.674  1.00  0.00     0.167 HD
ENDBRANCH   8  10
ENDBRANCH   1   8
BRANCH   1  12
ATOM     12  N   ASN A   1      12.810  30.211  15.221  1.00  0.00     0.093 N 
ATOM     13  H1  ASN A   1      12.525  30.433  14.239  1.00  0.00     0.314 HD
ATOM     14  H2  ASN A   1      12.416  30.957  15.839  1.00  0.00     0.314 HD
ENDBRANCH   1  12
TORSDOF 5
ENDMDL
MODEL 17
REMARK VINA RESULT:      -4.0      7.107      8.011
REMARK  5 active torsions:
REMARK  status: ('A' for Active; 'I' for Inactive)
REMARK       I    between atoms: ND2_1  and  CG_2 
REMARK    1  A    between atoms: CG_2  and  CB_3 
REMARK    2  A    between atoms: CB_3  and  CA_4 
REMARK    3  A    between atoms: CA_4  and  C_6 
REMARK    4  A    between atoms: CA_4  and  N_5 
REMARK    5  A    between atoms: C_6  and  O_7 
ROOT
ATOM      1  CA  ASN A   1      15.898  32.213  15.835  1.00  0.00     0.323 C 
ENDROOT
BRANCH   1   2
ATOM      2  CB  ASN A   1      14.810  32.853  16.721  1.00  0.00     0.149 C 
BRANCH   2   3
ATOM      3  CG  ASN A   1      14.148  31.836  17.605  1.00  0.00     0.217 C 
ATOM      4  ND2 ASN A   1      14.247  31.935  19.026  1.00  0.00    -0.370 N 
ATOM      5 1HD2 ASN A   1      13.775  31.232  19.637  1.00  0.00     0.159 HD
ATOM      6 2HD2 ASN A   1      14.782  32.714  19.470  1.00  0.00     0.159 HD
ATOM      7  OD1 ASN A   1      13.475  30.904  17.090  1.00  0.00    -0.274 OA
ENDBRANCH   2   3
ENDBRANCH   1   2
BRANCH   1   8
ATOM      8  C   ASN A   1      16.827  33.272  15.314  1.00  0.00     0.174 C 
ATOM      9  OXT ASN A   1      16.648  34.479  15.628  1.00  0.00    -0.648 OA
BRANCH   8  10
ATOM     10  O   ASN A   1      17.889  32.922  14.485  1.00  0.00    -0.775 OA
ATOM     11  H   ASN A   1      18.827  32.827  14.854  1.00  0.00     0.167 HD
ENDBRANCH   8  10
ENDBRANCH   1   8
BRANCH   1  12
ATOM     12  N   ASN A   1      15.321  31.482  14.703  1.00  0.00     0.093 N 
ATOM     13  H1  ASN A   1      15.959  31.550  13.877  1.00  0.00     0.314 HD
ATOM     14  H2  ASN A   1      14.413  31.928  14.437  1.00  0.00     0.314 HD
ENDBRANCH   1  12
TORSDOF 5
ENDMDL
MODEL 18
REMARK VINA RESULT:      -4.0      6.115      8.521
REMARK  5 active torsions:
REMARK  status: ('A' for Active; 'I' for Inactive)
REMARK       I    between atoms: ND2_1  and  CG_2 
REMARK    1  A    between atoms: CG_2  and  CB_3 
REMARK    2  A    between atoms: CB_3  and  CA_4 
REMARK    3  A    between atoms: CA_4  and  C_6 
REMARK    4  A    between atoms: CA_4  and  N_5 
REMARK    5  A    between atoms: C_6  and  O_7 
ROOT
ATOM      1  CA  ASN A   1      14.065  31.411  16.780  1.00  0.00     0.323 C 
ENDROOT
BRANCH   1   2
ATOM      2  CB  ASN A   1      15.254  32.366  16.552  1.00  0.00     0.149 C 
BRANCH   2   3
ATOM      3  CG  ASN A   1      15.078  33.656  17.298  1.00  0.00     0.217 C 
ATOM      4  ND2 ASN A   1      15.373  33.733  18.693  1.00  0.00    -0.370 N 
ATOM      5 1HD2 ASN A   1      15.260  34.636  19.206  1.00  0.00     0.159 HD
ATOM      6 2HD2 ASN A   1      15.711  32.894  19.214  1.00  0.00     0.159 HD
ATOM      7  OD1 ASN A   1      14.698  34.687  16.683  1.00  0.00    -0.274 OA
ENDBRANCH   2   3
ENDBRANCH   1   2
BRANCH   1   8
ATOM      8  C   ASN A   1      13.836  30.571  15.556  1.00  0.00     0.174 C 
ATOM      9  OXT ASN A   1      12.663  30.283  15.199  1.00  0.00    -0.648 OA
BRANCH   8  10
ATOM     10  O   ASN A   1      14.919  30.112  14.812  1.00  0.00    -0.775 OA
ATOM     11  H   ASN A   1      15.687  29.625  15.259  1.00  0.00     0.167 HD
ENDBRANCH   8  10
ENDBRANCH   1   8
BRANCH   1  12
ATOM     12  N   ASN A   1      12.834  32.138  17.101  1.00  0.00     0.093 N 
ATOM     13  H1  ASN A   1      12.338  32.401  16.218  1.00  0.00     0.314 HD
ATOM     14  H2  ASN A   1      13.081  33.023  17.599  1.00  0.00     0.314 HD
ENDBRANCH   1  12
TORSDOF 5
ENDMDL
MODEL 19
REMARK VINA RESULT:      -4.0      6.583      7.306
REMARK  5 active torsions:
REMARK  status: ('A' for Active; 'I' for Inactive)
REMARK       I    between atoms: ND2_1  and  CG_2 
REMARK    1  A    between atoms: CG_2  and  CB_3 
REMARK    2  A    between atoms: CB_3  and  CA_4 
REMARK    3  A    between atoms: CA_4  and  C_6 
REMARK    4  A    between atoms: CA_4  and  N_5 
REMARK    5  A    between atoms: C_6  and  O_7 
ROOT
ATOM      1  CA  ASN A   1      15.085  33.673  16.940  1.00  0.00     0.323 C 
ENDROOT
BRANCH   1   2
ATOM      2  CB  ASN A   1      14.840  32.274  17.541  1.00  0.00     0.149 C 
BRANCH   2   3
ATOM      3  CG  ASN A   1      13.678  31.586  16.886  1.00  0.00     0.217 C 
ATOM      4  ND2 ASN A   1      12.343  32.035  17.122  1.00  0.00    -0.370 N 
ATOM      5 1HD2 ASN A   1      11.538  31.561  16.655  1.00  0.00     0.159 HD
ATOM      6 2HD2 ASN A   1      12.156  32.845  17.754  1.00  0.00     0.159 HD
ATOM      7  OD1 ASN A   1      13.883  30.625  16.099  1.00  0.00    -0.274 OA
ENDBRANCH   2   3
ENDBRANCH   1   2
BRANCH   1   8
ATOM      8  C   ASN A   1      16.288  33.646  16.042  1.00  0.00     0.174 C 
ATOM      9  OXT ASN A   1      16.816  32.546  15.728  1.00  0.00    -0.648 OA
BRANCH   8  10
ATOM     10  O   ASN A   1      16.822  34.835  15.555  1.00  0.00    -0.775 OA
ATOM     11  H   ASN A   1      17.305  34.862  14.665  1.00  0.00     0.167 HD
ENDBRANCH   8  10
ENDBRANCH   1   8
BRANCH   1  12
ATOM     12  N   ASN A   1      15.284  34.688  17.979  1.00  0.00     0.093 N 
ATOM     13  H1  ASN A   1      15.524  35.605  17.536  1.00  0.00     0.314 HD
ATOM     14  H2  ASN A   1      16.093  34.407  18.579  1.00  0.00     0.314 HD
ENDBRANCH   1  12
TORSDOF 5
ENDMDL
MODEL 20
REMARK VINA RESULT:      -3.9      7.271      8.453
REMARK  5 active torsions:
REMARK  status: ('A' for Active; 'I' for Inactive)
REMARK       I    between atoms: ND2_1  and  CG_2 
REMARK    1  A    between atoms: CG_2  and  CB_3 
REMARK    2  A    between atoms: CB_3  and  CA_4 
REMARK    3  A    between atoms: CA_4  and  C_6 
REMARK    4  A    between atoms: CA_4  and  N_5 
REMARK    5  A    between atoms: C_6  and  O_7 
ROOT
ATOM      1  CA  ASN A   1      16.437  32.336  15.546  1.00  0.00     0.323 C 
ENDROOT
BRANCH   1   2
ATOM      2  CB  ASN A   1      15.748  31.805  14.273  1.00  0.00     0.149 C 
BRANCH   2   3
ATOM      3  CG  ASN A   1      15.129  30.456  14.500  1.00  0.00     0.217 C 
ATOM      4  ND2 ASN A   1      13.818  30.344  15.055  1.00  0.00    -0.370 N 
ATOM      5 1HD2 ASN A   1      13.386  29.404  15.201  1.00  0.00     0.159 HD
ATOM      6 2HD2 ASN A   1      13.273  31.197  15.313  1.00  0.00     0.159 HD
ATOM      7  OD1 ASN A   1      15.757  29.416  14.171  1.00  0.00    -0.274 OA
ENDBRANCH   2   3
ENDBRANCH   1   2
BRANCH   1   8
ATOM      8  C   ASN A   1      15.549  33.330  16.237  1.00  0.00     0.174 C 
ATOM      9  OXT ASN A   1      15.882  34.544  16.289  1.00  0.00    -0.648 OA
BRANCH   8  10
ATOM     10  O   ASN A   1      14.356  32.913  16.820  1.00  0.00    -0.775 OA
ATOM     11  H   ASN A   1      14.231  31.954  17.117  1.00  0.00     0.167 HD
ENDBRANCH   8  10
ENDBRANCH   1   8
BRANCH   1  12
ATOM     12  N   ASN A   1      17.725  32.969  15.247  1.00  0.00     0.093 N 
ATOM     13  H1  ASN A   1      18.306  33.016  16.115  1.00  0.00     0.314 HD
ATOM     14  H2  ASN A   1      17.556  33.950  14.927  1.00  0.00     0.314 HD
ENDBRANCH   1  12
TORSDOF 5
ENDMDL
