REMARK  3 active torsions:
REMARK  status: ('A' for Active; 'I' for Inactive)
REMARK    1  A    between atoms: C_2  and  C_10 
REMARK    2  A    between atoms: C_2  and  C_3 
REMARK    3  A    between atoms: C_6  and  N_7 
ROOT
HETATM    1  C   LIG     1      -0.033   0.294   0.179  1.00  0.00     0.010 A 
HETATM    2  C   LIG     1      -1.096   0.900   0.876  1.00  0.00     0.017 A 
HETATM    3  C   LIG     1      -2.422   0.581   0.570  1.00  0.00     0.030 A 
HETATM    4  C   LIG     1      -2.712  -0.346  -0.439  1.00  0.00     0.025 A 
HETATM    5  C   LIG     1      -1.662  -0.952  -1.140  1.00  0.00     0.030 A 
HETATM    6  C   LIG     1      -0.334  -0.636  -0.836  1.00  0.00     0.017 A 
ENDROOT
BRANCH   1   7
HETATM    7  C   LIG     1       1.374   0.645   0.517  1.00  0.00     0.159 C 
HETATM    8  O   LIG     1       1.596   1.587   1.329  1.00  0.00    -0.292 OA
BRANCH   7   9
HETATM    9  C   LIG     1       2.539  -0.086  -0.108  1.00  0.00     0.079 C 
HETATM   10  C   LIG     1       3.886   0.287   0.511  1.00  0.00     0.013 C 
ENDBRANCH   7   9
ENDBRANCH   1   7
BRANCH   4  11
HETATM   11  N   LIG     1      -4.069  -0.670  -0.751  1.00  0.00    -0.399 N 
HETATM   12  H   LIG     1      -4.294  -1.360  -1.502  1.00  0.00     0.156 HD
HETATM   13  H   LIG     1      -4.858  -0.223  -0.234  1.00  0.00     0.156 HD
ENDBRANCH   4  11
TORSDOF 3
