MODEL 1
REMARK VINA RESULT:      -7.0      0.000      0.000
REMARK  3 active torsions:
REMARK  status: ('A' for Active; 'I' for Inactive)
REMARK    1  A    between atoms: C_2  and  C_10 
REMARK    2  A    between atoms: C_2  and  C_3 
REMARK    3  A    between atoms: C_6  and  N_7 
ROOT
HETATM    1  C   LIG     1      17.620  37.301  21.320  1.00  0.00     0.010 A 
HETATM    2  C   LIG     1      18.260  36.655  20.244  1.00  0.00     0.017 A 
HETATM    3  C   LIG     1      19.198  37.335  19.461  1.00  0.00     0.030 A 
HETATM    4  C   LIG     1      19.511  38.673  19.735  1.00  0.00     0.025 A 
HETATM    5  C   LIG     1      18.878  39.324  20.800  1.00  0.00     0.030 A 
HETATM    6  C   LIG     1      17.940  38.647  21.587  1.00  0.00     0.017 A 
ENDROOT
BRANCH   1   7
HETATM    7  C   LIG     1      16.624  36.563  22.144  1.00  0.00     0.159 C 
HETATM    8  O   LIG     1      15.526  37.119  22.428  1.00  0.00    -0.292 OA
BRANCH   7   9
HETATM    9  C   LIG     1      16.909  35.174  22.665  1.00  0.00     0.079 C 
HETATM   10  C   LIG     1      17.202  35.142  24.165  1.00  0.00     0.013 C 
ENDBRANCH   7   9
ENDBRANCH   1   7
BRANCH   4  11
HETATM   11  N   LIG     1      20.469  39.366  18.932  1.00  0.00    -0.399 N 
HETATM   12  H   LIG     1      20.278  40.334  18.589  1.00  0.00     0.156 HD
HETATM   13  H   LIG     1      21.377  38.919  18.676  1.00  0.00     0.156 HD
ENDBRANCH   4  11
TORSDOF 3
ENDMDL
MODEL 2
REMARK VINA RESULT:      -6.4      3.536      4.429
REMARK  3 active torsions:
REMARK  status: ('A' for Active; 'I' for Inactive)
REMARK    1  A    between atoms: C_2  and  C_10 
REMARK    2  A    between atoms: C_2  and  C_3 
REMARK    3  A    between atoms: C_6  and  N_7 
ROOT
HETATM    1  C   LIG     1      16.628  35.841  22.434  1.00  0.00     0.010 A 
HETATM    2  C   LIG     1      17.039  35.061  23.532  1.00  0.00     0.017 A 
HETATM    3  C   LIG     1      17.346  35.661  24.757  1.00  0.00     0.030 A 
HETATM    4  C   LIG     1      17.252  37.050  24.908  1.00  0.00     0.025 A 
HETATM    5  C   LIG     1      16.848  37.835  23.821  1.00  0.00     0.030 A 
HETATM    6  C   LIG     1      16.539  37.239  22.594  1.00  0.00     0.017 A 
ENDROOT
BRANCH   1   7
HETATM    7  C   LIG     1      16.305  35.187  21.136  1.00  0.00     0.159 C 
HETATM    8  O   LIG     1      16.938  35.531  20.098  1.00  0.00    -0.292 OA
BRANCH   7   9
HETATM    9  C   LIG     1      15.222  34.140  21.031  1.00  0.00     0.079 C 
HETATM   10  C   LIG     1      15.550  33.032  20.031  1.00  0.00     0.013 C 
ENDBRANCH   7   9
ENDBRANCH   1   7
BRANCH   4  11
HETATM   11  N   LIG     1      17.568  37.661  26.161  1.00  0.00    -0.399 N 
HETATM   12  H   LIG     1      17.868  37.082  26.977  1.00  0.00     0.156 HD
HETATM   13  H   LIG     1      17.503  38.696  26.283  1.00  0.00     0.156 HD
ENDBRANCH   4  11
TORSDOF 3
ENDMDL
MODEL 3
REMARK VINA RESULT:      -6.1      8.809      9.722
REMARK  3 active torsions:
REMARK  status: ('A' for Active; 'I' for Inactive)
REMARK    1  A    between atoms: C_2  and  C_10 
REMARK    2  A    between atoms: C_2  and  C_3 
REMARK    3  A    between atoms: C_6  and  N_7 
ROOT
HETATM    1  C   LIG     1      14.464  30.869  15.299  1.00  0.00     0.010 A 
HETATM    2  C   LIG     1      15.524  31.762  15.051  1.00  0.00     0.017 A 
HETATM    3  C   LIG     1      15.757  32.845  15.904  1.00  0.00     0.030 A 
HETATM    4  C   LIG     1      14.934  33.059  17.017  1.00  0.00     0.025 A 
HETATM    5  C   LIG     1      13.875  32.179  17.270  1.00  0.00     0.030 A 
HETATM    6  C   LIG     1      13.640  31.093  16.420  1.00  0.00     0.017 A 
ENDROOT
BRANCH   1   7
HETATM    7  C   LIG     1      14.229  29.721  14.381  1.00  0.00     0.159 C 
HETATM    8  O   LIG     1      13.062  29.249  14.269  1.00  0.00    -0.292 OA
BRANCH   7   9
HETATM    9  C   LIG     1      15.360  29.094  13.600  1.00  0.00     0.079 C 
HETATM   10  C   LIG     1      15.295  27.567  13.564  1.00  0.00     0.013 C 
ENDBRANCH   7   9
ENDBRANCH   1   7
BRANCH   4  11
HETATM   11  N   LIG     1      15.173  34.168  17.887  1.00  0.00    -0.399 N 
HETATM   12  H   LIG     1      14.418  34.861  18.088  1.00  0.00     0.156 HD
HETATM   13  H   LIG     1      16.106  34.305  18.335  1.00  0.00     0.156 HD
ENDBRANCH   4  11
TORSDOF 3
ENDMDL
MODEL 4
REMARK VINA RESULT:      -6.0      2.796      4.421
REMARK  3 active torsions:
REMARK  status: ('A' for Active; 'I' for Inactive)
REMARK    1  A    between atoms: C_2  and  C_10 
REMARK    2  A    between atoms: C_2  and  C_3 
REMARK    3  A    between atoms: C_6  and  N_7 
ROOT
HETATM    1  C   LIG     1      17.954  37.441  20.891  1.00  0.00     0.010 A 
HETATM    2  C   LIG     1      17.388  36.266  21.422  1.00  0.00     0.017 A 
HETATM    3  C   LIG     1      16.968  36.217  22.754  1.00  0.00     0.030 A 
HETATM    4  C   LIG     1      17.108  37.337  23.582  1.00  0.00     0.025 A 
HETATM    5  C   LIG     1      17.673  38.510  23.065  1.00  0.00     0.030 A 
HETATM    6  C   LIG     1      18.093  38.564  21.732  1.00  0.00     0.017 A 
ENDROOT
BRANCH   1   7
HETATM    7  C   LIG     1      18.397  37.478  19.470  1.00  0.00     0.159 C 
HETATM    8  O   LIG     1      18.144  36.493  18.720  1.00  0.00    -0.292 OA
BRANCH   7   9
HETATM    9  C   LIG     1      19.162  38.656  18.914  1.00  0.00     0.079 C 
HETATM   10  C   LIG     1      20.627  38.684  19.352  1.00  0.00     0.013 C 
ENDBRANCH   7   9
ENDBRANCH   1   7
BRANCH   4  11
HETATM   11  N   LIG     1      16.679  37.284  24.945  1.00  0.00    -0.399 N 
HETATM   12  H   LIG     1      16.715  36.389  25.481  1.00  0.00     0.156 HD
HETATM   13  H   LIG     1      16.322  38.138  25.427  1.00  0.00     0.156 HD
ENDBRANCH   4  11
TORSDOF 3
ENDMDL
MODEL 5
REMARK VINA RESULT:      -5.9      3.051      4.585
REMARK  3 active torsions:
REMARK  status: ('A' for Active; 'I' for Inactive)
REMARK    1  A    between atoms: C_2  and  C_10 
REMARK    2  A    between atoms: C_2  and  C_3 
REMARK    3  A    between atoms: C_6  and  N_7 
ROOT
HETATM    1  C   LIG     1      16.389  36.729  22.606  1.00  0.00     0.010 A 
HETATM    2  C   LIG     1      15.111  36.788  22.020  1.00  0.00     0.017 A 
HETATM    3  C   LIG     1      14.629  35.723  21.253  1.00  0.00     0.030 A 
HETATM    4  C   LIG     1      15.414  34.581  21.056  1.00  0.00     0.025 A 
HETATM    5  C   LIG     1      16.688  34.513  21.633  1.00  0.00     0.030 A 
HETATM    6  C   LIG     1      17.174  35.576  22.401  1.00  0.00     0.017 A 
ENDROOT
BRANCH   1   7
HETATM    7  C   LIG     1      16.889  37.872  23.419  1.00  0.00     0.159 C 
HETATM    8  O   LIG     1      16.286  38.179  24.487  1.00  0.00    -0.292 OA
BRANCH   7   9
HETATM    9  C   LIG     1      18.084  38.685  22.983  1.00  0.00     0.079 C 
HETATM   10  C   LIG     1      18.054  39.051  21.499  1.00  0.00     0.013 C 
ENDBRANCH   7   9
ENDBRANCH   1   7
BRANCH   4  11
HETATM   11  N   LIG     1      14.919  33.493  20.272  1.00  0.00    -0.399 N 
HETATM   12  H   LIG     1      14.075  32.957  20.574  1.00  0.00     0.156 HD
HETATM   13  H   LIG     1      15.392  33.216  19.384  1.00  0.00     0.156 HD
ENDBRANCH   4  11
TORSDOF 3
ENDMDL
MODEL 6
REMARK VINA RESULT:      -5.9      8.816      9.711
REMARK  3 active torsions:
REMARK  status: ('A' for Active; 'I' for Inactive)
REMARK    1  A    between atoms: C_2  and  C_10 
REMARK    2  A    between atoms: C_2  and  C_3 
REMARK    3  A    between atoms: C_6  and  N_7 
ROOT
HETATM    1  C   LIG     1      14.779  31.552  15.784  1.00  0.00     0.010 A 
HETATM    2  C   LIG     1      15.350  30.881  14.685  1.00  0.00     0.017 A 
HETATM    3  C   LIG     1      14.645  29.873  14.022  1.00  0.00     0.030 A 
HETATM    4  C   LIG     1      13.359  29.514  14.443  1.00  0.00     0.025 A 
HETATM    5  C   LIG     1      12.783  30.173  15.537  1.00  0.00     0.030 A 
HETATM    6  C   LIG     1      13.485  31.183  16.203  1.00  0.00     0.017 A 
ENDROOT
BRANCH   1   7
HETATM    7  C   LIG     1      15.544  32.624  16.480  1.00  0.00     0.159 C 
HETATM    8  O   LIG     1      16.641  33.014  15.991  1.00  0.00    -0.292 OA
BRANCH   7   9
HETATM    9  C   LIG     1      15.045  33.235  17.768  1.00  0.00     0.079 C 
HETATM   10  C   LIG     1      15.331  32.370  18.996  1.00  0.00     0.013 C 
ENDBRANCH   7   9
ENDBRANCH   1   7
BRANCH   4  11
HETATM   11  N   LIG     1      12.640  28.482  13.764  1.00  0.00    -0.399 N 
HETATM   12  H   LIG     1      11.660  28.246  14.036  1.00  0.00     0.156 HD
HETATM   13  H   LIG     1      13.082  27.946  12.984  1.00  0.00     0.156 HD
ENDBRANCH   4  11
TORSDOF 3
ENDMDL
MODEL 7
REMARK VINA RESULT:      -5.9      8.892     10.095
REMARK  3 active torsions:
REMARK  status: ('A' for Active; 'I' for Inactive)
REMARK    1  A    between atoms: C_2  and  C_10 
REMARK    2  A    between atoms: C_2  and  C_3 
REMARK    3  A    between atoms: C_6  and  N_7 
ROOT
HETATM    1  C   LIG     1      15.309  31.634  15.250  1.00  0.00     0.010 A 
HETATM    2  C   LIG     1      15.622  30.827  14.139  1.00  0.00     0.017 A 
HETATM    3  C   LIG     1      14.756  29.809  13.732  1.00  0.00     0.030 A 
HETATM    4  C   LIG     1      13.563  29.574  14.427  1.00  0.00     0.025 A 
HETATM    5  C   LIG     1      13.244  30.369  15.536  1.00  0.00     0.030 A 
HETATM    6  C   LIG     1      14.108  31.389  15.946  1.00  0.00     0.017 A 
ENDROOT
BRANCH   1   7
HETATM    7  C   LIG     1      16.243  32.714  15.672  1.00  0.00     0.159 C 
HETATM    8  O   LIG     1      15.855  33.570  16.516  1.00  0.00    -0.292 OA
BRANCH   7   9
HETATM    9  C   LIG     1      17.635  32.821  15.093  1.00  0.00     0.079 C 
HETATM   10  C   LIG     1      17.774  33.941  14.062  1.00  0.00     0.013 C 
ENDBRANCH   7   9
ENDBRANCH   1   7
BRANCH   4  11
HETATM   11  N   LIG     1      12.679  28.531  14.009  1.00  0.00    -0.399 N 
HETATM   12  H   LIG     1      12.636  28.238  13.008  1.00  0.00     0.156 HD
HETATM   13  H   LIG     1      12.062  28.046  14.697  1.00  0.00     0.156 HD
ENDBRANCH   4  11
TORSDOF 3
ENDMDL
MODEL 8
REMARK VINA RESULT:      -5.9      3.047      3.807
REMARK  3 active torsions:
REMARK  status: ('A' for Active; 'I' for Inactive)
REMARK    1  A    between atoms: C_2  and  C_10 
REMARK    2  A    between atoms: C_2  and  C_3 
REMARK    3  A    between atoms: C_6  and  N_7 
ROOT
HETATM    1  C   LIG     1      16.356  37.135  22.386  1.00  0.00     0.010 A 
HETATM    2  C   LIG     1      17.389  36.726  21.521  1.00  0.00     0.017 A 
HETATM    3  C   LIG     1      17.138  35.816  20.491  1.00  0.00     0.030 A 
HETATM    4  C   LIG     1      15.851  35.295  20.305  1.00  0.00     0.025 A 
HETATM    5  C   LIG     1      14.817  35.693  21.161  1.00  0.00     0.030 A 
HETATM    6  C   LIG     1      15.065  36.604  22.193  1.00  0.00     0.017 A 
ENDROOT
BRANCH   1   7
HETATM    7  C   LIG     1      16.640  38.105  23.479  1.00  0.00     0.159 C 
HETATM    8  O   LIG     1      16.692  39.338  23.210  1.00  0.00    -0.292 OA
BRANCH   7   9
HETATM    9  C   LIG     1      16.892  37.643  24.895  1.00  0.00     0.079 C 
HETATM   10  C   LIG     1      18.375  37.466  25.217  1.00  0.00     0.013 C 
ENDBRANCH   7   9
ENDBRANCH   1   7
BRANCH   4  11
HETATM   11  N   LIG     1      15.596  34.363  19.251  1.00  0.00    -0.399 N 
HETATM   12  H   LIG     1      15.157  33.437  19.452  1.00  0.00     0.156 HD
HETATM   13  H   LIG     1      15.844  34.592  18.263  1.00  0.00     0.156 HD
ENDBRANCH   4  11
TORSDOF 3
ENDMDL
MODEL 9
REMARK VINA RESULT:      -5.7      2.133      2.938
REMARK  3 active torsions:
REMARK  status: ('A' for Active; 'I' for Inactive)
REMARK    1  A    between atoms: C_2  and  C_10 
REMARK    2  A    between atoms: C_2  and  C_3 
REMARK    3  A    between atoms: C_6  and  N_7 
ROOT
HETATM    1  C   LIG     1      16.706  36.154  21.189  1.00  0.00     0.010 A 
HETATM    2  C   LIG     1      16.437  37.105  22.192  1.00  0.00     0.017 A 
HETATM    3  C   LIG     1      17.205  38.269  22.295  1.00  0.00     0.030 A 
HETATM    4  C   LIG     1      18.256  38.504  21.400  1.00  0.00     0.025 A 
HETATM    5  C   LIG     1      18.533  37.563  20.400  1.00  0.00     0.030 A 
HETATM    6  C   LIG     1      17.767  36.398  20.294  1.00  0.00     0.017 A 
ENDROOT
BRANCH   1   7
HETATM    7  C   LIG     1      15.879  34.920  21.093  1.00  0.00     0.159 C 
HETATM    8  O   LIG     1      15.351  34.449  22.140  1.00  0.00    -0.292 OA
BRANCH   7   9
HETATM    9  C   LIG     1      15.678  34.207  19.776  1.00  0.00     0.079 C 
HETATM   10  C   LIG     1      15.474  32.700  19.932  1.00  0.00     0.013 C 
ENDBRANCH   7   9
ENDBRANCH   1   7
BRANCH   4  11
HETATM   11  N   LIG     1      19.041  39.694  21.507  1.00  0.00    -0.399 N 
HETATM   12  H   LIG     1      18.686  40.522  22.036  1.00  0.00     0.156 HD
HETATM   13  H   LIG     1      19.982  39.756  21.060  1.00  0.00     0.156 HD
ENDBRANCH   4  11
TORSDOF 3
ENDMDL
MODEL 10
REMARK VINA RESULT:      -5.7      8.398      9.737
REMARK  3 active torsions:
REMARK  status: ('A' for Active; 'I' for Inactive)
REMARK    1  A    between atoms: C_2  and  C_10 
REMARK    2  A    between atoms: C_2  and  C_3 
REMARK    3  A    between atoms: C_6  and  N_7 
ROOT
HETATM    1  C   LIG     1      15.853  32.029  15.155  1.00  0.00     0.010 A 
HETATM    2  C   LIG     1      15.254  30.925  14.518  1.00  0.00     0.017 A 
HETATM    3  C   LIG     1      14.081  30.360  15.026  1.00  0.00     0.030 A 
HETATM    4  C   LIG     1      13.486  30.884  16.180  1.00  0.00     0.025 A 
HETATM    5  C   LIG     1      14.075  31.980  16.823  1.00  0.00     0.030 A 
HETATM    6  C   LIG     1      15.248  32.549  16.317  1.00  0.00     0.017 A 
ENDROOT
BRANCH   1   7
HETATM    7  C   LIG     1      17.103  32.620  14.601  1.00  0.00     0.159 C 
HETATM    8  O   LIG     1      18.146  32.632  15.312  1.00  0.00    -0.292 OA
BRANCH   7   9
HETATM    9  C   LIG     1      17.141  33.223  13.216  1.00  0.00     0.079 C 
HETATM   10  C   LIG     1      18.530  33.721  12.815  1.00  0.00     0.013 C 
ENDBRANCH   7   9
ENDBRANCH   1   7
BRANCH   4  11
HETATM   11  N   LIG     1      12.286  30.304  16.699  1.00  0.00    -0.399 N 
HETATM   12  H   LIG     1      11.350  30.638  16.379  1.00  0.00     0.156 HD
HETATM   13  H   LIG     1      12.326  29.537  17.406  1.00  0.00     0.156 HD
ENDBRANCH   4  11
TORSDOF 3
ENDMDL
MODEL 11
REMARK VINA RESULT:      -5.5      3.049      4.699
REMARK  3 active torsions:
REMARK  status: ('A' for Active; 'I' for Inactive)
REMARK    1  A    between atoms: C_2  and  C_10 
REMARK    2  A    between atoms: C_2  and  C_3 
REMARK    3  A    between atoms: C_6  and  N_7 
ROOT
HETATM    1  C   LIG     1      17.662  37.713  21.511  1.00  0.00     0.010 A 
HETATM    2  C   LIG     1      16.462  38.001  22.190  1.00  0.00     0.017 A 
HETATM    3  C   LIG     1      15.401  37.091  22.179  1.00  0.00     0.030 A 
HETATM    4  C   LIG     1      15.516  35.878  21.488  1.00  0.00     0.025 A 
HETATM    5  C   LIG     1      16.704  35.583  20.807  1.00  0.00     0.030 A 
HETATM    6  C   LIG     1      17.768  36.491  20.817  1.00  0.00     0.017 A 
ENDROOT
BRANCH   1   7
HETATM    7  C   LIG     1      18.782  38.693  21.532  1.00  0.00     0.159 C 
HETATM    8  O   LIG     1      19.175  39.156  22.640  1.00  0.00    -0.292 OA
BRANCH   7   9
HETATM    9  C   LIG     1      19.442  39.161  20.256  1.00  0.00     0.079 C 
HETATM   10  C   LIG     1      18.529  39.061  19.034  1.00  0.00     0.013 C 
ENDBRANCH   7   9
ENDBRANCH   1   7
BRANCH   4  11
HETATM   11  N   LIG     1      14.430  34.949  21.477  1.00  0.00    -0.399 N 
HETATM   12  H   LIG     1      13.472  35.251  21.189  1.00  0.00     0.156 HD
HETATM   13  H   LIG     1      14.574  33.954  21.757  1.00  0.00     0.156 HD
ENDBRANCH   4  11
TORSDOF 3
ENDMDL
MODEL 12
REMARK VINA RESULT:      -5.5      3.403      4.828
REMARK  3 active torsions:
REMARK  status: ('A' for Active; 'I' for Inactive)
REMARK    1  A    between atoms: C_2  and  C_10 
REMARK    2  A    between atoms: C_2  and  C_3 
REMARK    3  A    between atoms: C_6  and  N_7 
ROOT
HETATM    1  C   LIG     1      17.483  36.159  20.451  1.00  0.00     0.010 A 
HETATM    2  C   LIG     1      16.569  35.666  19.501  1.00  0.00     0.017 A 
HETATM    3  C   LIG     1      15.470  34.899  19.901  1.00  0.00     0.030 A 
HETATM    4  C   LIG     1      15.266  34.608  21.256  1.00  0.00     0.025 A 
HETATM    5  C   LIG     1      16.172  35.092  22.208  1.00  0.00     0.030 A 
HETATM    6  C   LIG     1      17.271  35.860  21.812  1.00  0.00     0.017 A 
ENDROOT
BRANCH   1   7
HETATM    7  C   LIG     1      18.649  36.974  20.009  1.00  0.00     0.159 C 
HETATM    8  O   LIG     1      19.669  36.389  19.546  1.00  0.00    -0.292 OA
BRANCH   7   9
HETATM    9  C   LIG     1      18.644  38.480  20.123  1.00  0.00     0.079 C 
HETATM   10  C   LIG     1      18.824  38.976  21.558  1.00  0.00     0.013 C 
ENDBRANCH   7   9
ENDBRANCH   1   7
BRANCH   4  11
HETATM   11  N   LIG     1      14.142  33.824  21.662  1.00  0.00    -0.399 N 
HETATM   12  H   LIG     1      13.753  33.084  21.036  1.00  0.00     0.156 HD
HETATM   13  H   LIG     1      13.692  33.976  22.592  1.00  0.00     0.156 HD
ENDBRANCH   4  11
TORSDOF 3
ENDMDL
MODEL 13
REMARK VINA RESULT:      -5.4      7.195      7.994
REMARK  3 active torsions:
REMARK  status: ('A' for Active; 'I' for Inactive)
REMARK    1  A    between atoms: C_2  and  C_10 
REMARK    2  A    between atoms: C_2  and  C_3 
REMARK    3  A    between atoms: C_6  and  N_7 
ROOT
HETATM    1  C   LIG     1      15.178  32.141  16.243  1.00  0.00     0.010 A 
HETATM    2  C   LIG     1      16.075  33.220  16.129  1.00  0.00     0.017 A 
HETATM    3  C   LIG     1      16.779  33.439  14.941  1.00  0.00     0.030 A 
HETATM    4  C   LIG     1      16.602  32.584  13.846  1.00  0.00     0.025 A 
HETATM    5  C   LIG     1      15.714  31.506  13.950  1.00  0.00     0.030 A 
HETATM    6  C   LIG     1      15.008  31.284  15.137  1.00  0.00     0.017 A 
ENDROOT
BRANCH   1   7
HETATM    7  C   LIG     1      14.437  31.921  17.515  1.00  0.00     0.159 C 
HETATM    8  O   LIG     1      13.300  31.370  17.479  1.00  0.00    -0.292 OA
BRANCH   7   9
HETATM    9  C   LIG     1      15.005  32.363  18.843  1.00  0.00     0.079 C 
HETATM   10  C   LIG     1      14.846  31.315  19.945  1.00  0.00     0.013 C 
ENDBRANCH   7   9
ENDBRANCH   1   7
BRANCH   4  11
HETATM   11  N   LIG     1      17.323  32.810  12.633  1.00  0.00    -0.399 N 
HETATM   12  H   LIG     1      16.824  33.085  11.758  1.00  0.00     0.156 HD
HETATM   13  H   LIG     1      18.361  32.703  12.600  1.00  0.00     0.156 HD
ENDBRANCH   4  11
TORSDOF 3
ENDMDL
MODEL 14
REMARK VINA RESULT:      -5.2      9.137     10.066
REMARK  3 active torsions:
REMARK  status: ('A' for Active; 'I' for Inactive)
REMARK    1  A    between atoms: C_2  and  C_10 
REMARK    2  A    between atoms: C_2  and  C_3 
REMARK    3  A    between atoms: C_6  and  N_7 
ROOT
HETATM    1  C   LIG     1      14.060  30.952  15.724  1.00  0.00     0.010 A 
HETATM    2  C   LIG     1      15.358  31.001  15.180  1.00  0.00     0.017 A 
HETATM    3  C   LIG     1      15.755  30.087  14.201  1.00  0.00     0.030 A 
HETATM    4  C   LIG     1      14.866  29.104  13.748  1.00  0.00     0.025 A 
HETATM    5  C   LIG     1      13.573  29.045  14.284  1.00  0.00     0.030 A 
HETATM    6  C   LIG     1      13.172  29.959  15.264  1.00  0.00     0.017 A 
ENDROOT
BRANCH   1   7
HETATM    7  C   LIG     1      13.652  31.934  16.767  1.00  0.00     0.159 C 
HETATM    8  O   LIG     1      12.423  32.139  16.973  1.00  0.00    -0.292 OA
BRANCH   7   9
HETATM    9  C   LIG     1      14.678  32.705  17.564  1.00  0.00     0.079 C 
HETATM   10  C   LIG     1      14.981  34.085  16.981  1.00  0.00     0.013 C 
ENDBRANCH   7   9
ENDBRANCH   1   7
BRANCH   4  11
HETATM   11  N   LIG     1      15.274  28.169  12.747  1.00  0.00    -0.399 N 
HETATM   12  H   LIG     1      15.997  28.427  12.039  1.00  0.00     0.156 HD
HETATM   13  H   LIG     1      14.858  27.213  12.706  1.00  0.00     0.156 HD
ENDBRANCH   4  11
TORSDOF 3
ENDMDL
MODEL 15
REMARK VINA RESULT:      -5.0      5.088      6.161
REMARK  3 active torsions:
REMARK  status: ('A' for Active; 'I' for Inactive)
REMARK    1  A    between atoms: C_2  and  C_10 
REMARK    2  A    between atoms: C_2  and  C_3 
REMARK    3  A    between atoms: C_6  and  N_7 
ROOT
HETATM    1  C   LIG     1      15.591  34.041  19.479  1.00  0.00     0.010 A 
HETATM    2  C   LIG     1      15.291  32.803  20.080  1.00  0.00     0.017 A 
HETATM    3  C   LIG     1      14.700  31.776  19.339  1.00  0.00     0.030 A 
HETATM    4  C   LIG     1      14.395  31.965  17.985  1.00  0.00     0.025 A 
HETATM    5  C   LIG     1      14.686  33.194  17.379  1.00  0.00     0.030 A 
HETATM    6  C   LIG     1      15.278  34.224  18.117  1.00  0.00     0.017 A 
ENDROOT
BRANCH   1   7
HETATM    7  C   LIG     1      16.220  35.125  20.282  1.00  0.00     0.159 C 
HETATM    8  O   LIG     1      17.146  35.814  19.769  1.00  0.00    -0.292 OA
BRANCH   7   9
HETATM    9  C   LIG     1      15.788  35.402  21.703  1.00  0.00     0.079 C 
HETATM   10  C   LIG     1      16.424  36.662  22.291  1.00  0.00     0.013 C 
ENDBRANCH   7   9
ENDBRANCH   1   7
BRANCH   4  11
HETATM   11  N   LIG     1      13.790  30.914  17.229  1.00  0.00    -0.399 N 
HETATM   12  H   LIG     1      12.924  30.440  17.571  1.00  0.00     0.156 HD
HETATM   13  H   LIG     1      14.202  30.601  16.323  1.00  0.00     0.156 HD
ENDBRANCH   4  11
TORSDOF 3
ENDMDL
MODEL 16
REMARK VINA RESULT:      -4.9      7.264      7.998
REMARK  3 active torsions:
REMARK  status: ('A' for Active; 'I' for Inactive)
REMARK    1  A    between atoms: C_2  and  C_10 
REMARK    2  A    between atoms: C_2  and  C_3 
REMARK    3  A    between atoms: C_6  and  N_7 
ROOT
HETATM    1  C   LIG     1      15.939  32.758  15.688  1.00  0.00     0.010 A 
HETATM    2  C   LIG     1      15.700  31.952  14.558  1.00  0.00     0.017 A 
HETATM    3  C   LIG     1      16.417  32.153  13.375  1.00  0.00     0.030 A 
HETATM    4  C   LIG     1      17.383  33.163  13.297  1.00  0.00     0.025 A 
HETATM    5  C   LIG     1      17.626  33.972  14.414  1.00  0.00     0.030 A 
HETATM    6  C   LIG     1      16.911  33.773  15.599  1.00  0.00     0.017 A 
ENDROOT
BRANCH   1   7
HETATM    7  C   LIG     1      15.166  32.531  16.940  1.00  0.00     0.159 C 
HETATM    8  O   LIG     1      15.411  33.245  17.953  1.00  0.00    -0.292 OA
BRANCH   7   9
HETATM    9  C   LIG     1      14.114  31.450  17.031  1.00  0.00     0.079 C 
HETATM   10  C   LIG     1      12.703  31.958  16.738  1.00  0.00     0.013 C 
ENDBRANCH   7   9
ENDBRANCH   1   7
BRANCH   4  11
HETATM   11  N   LIG     1      18.114  33.368  12.086  1.00  0.00    -0.399 N 
HETATM   12  H   LIG     1      18.608  32.574  11.619  1.00  0.00     0.156 HD
HETATM   13  H   LIG     1      18.168  34.313  11.646  1.00  0.00     0.156 HD
ENDBRANCH   4  11
TORSDOF 3
ENDMDL
MODEL 17
REMARK VINA RESULT:      -4.9      7.263      8.161
REMARK  3 active torsions:
REMARK  status: ('A' for Active; 'I' for Inactive)
REMARK    1  A    between atoms: C_2  and  C_10 
REMARK    2  A    between atoms: C_2  and  C_3 
REMARK    3  A    between atoms: C_6  and  N_7 
ROOT
HETATM    1  C   LIG     1      14.960  32.242  17.135  1.00  0.00     0.010 A 
HETATM    2  C   LIG     1      15.919  32.440  16.123  1.00  0.00     0.017 A 
HETATM    3  C   LIG     1      15.835  31.741  14.916  1.00  0.00     0.030 A 
HETATM    4  C   LIG     1      14.795  30.829  14.698  1.00  0.00     0.025 A 
HETATM    5  C   LIG     1      13.838  30.623  15.699  1.00  0.00     0.030 A 
HETATM    6  C   LIG     1      13.918  31.321  16.908  1.00  0.00     0.017 A 
ENDROOT
BRANCH   1   7
HETATM    7  C   LIG     1      15.064  32.995  18.416  1.00  0.00     0.159 C 
HETATM    8  O   LIG     1      14.886  32.383  19.507  1.00  0.00    -0.292 OA
BRANCH   7   9
HETATM    9  C   LIG     1      15.356  34.477  18.435  1.00  0.00     0.079 C 
HETATM   10  C   LIG     1      15.747  34.996  19.819  1.00  0.00     0.013 C 
ENDBRANCH   7   9
ENDBRANCH   1   7
BRANCH   4  11
HETATM   11  N   LIG     1      14.711  30.114  13.463  1.00  0.00    -0.399 N 
HETATM   12  H   LIG     1      15.576  29.807  12.964  1.00  0.00     0.156 HD
HETATM   13  H   LIG     1      13.785  29.886  13.038  1.00  0.00     0.156 HD
ENDBRANCH   4  11
TORSDOF 3
ENDMDL
MODEL 18
REMARK VINA RESULT:      -4.9      8.137      8.849
REMARK  3 active torsions:
REMARK  status: ('A' for Active; 'I' for Inactive)
REMARK    1  A    between atoms: C_2  and  C_10 
REMARK    2  A    between atoms: C_2  and  C_3 
REMARK    3  A    between atoms: C_6  and  N_7 
ROOT
HETATM    1  C   LIG     1      15.375  31.554  14.862  1.00  0.00     0.010 A 
HETATM    2  C   LIG     1      15.737  31.560  13.501  1.00  0.00     0.017 A 
HETATM    3  C   LIG     1      16.756  32.398  13.039  1.00  0.00     0.030 A 
HETATM    4  C   LIG     1      17.430  33.248  13.925  1.00  0.00     0.025 A 
HETATM    5  C   LIG     1      17.076  33.251  15.280  1.00  0.00     0.030 A 
HETATM    6  C   LIG     1      16.057  32.414  15.746  1.00  0.00     0.017 A 
ENDROOT
BRANCH   1   7
HETATM    7  C   LIG     1      14.288  30.656  15.339  1.00  0.00     0.159 C 
HETATM    8  O   LIG     1      13.880  29.728  14.585  1.00  0.00    -0.292 OA
BRANCH   7   9
HETATM    9  C   LIG     1      13.647  30.846  16.694  1.00  0.00     0.079 C 
HETATM   10  C   LIG     1      12.674  32.024  16.739  1.00  0.00     0.013 C 
ENDBRANCH   7   9
ENDBRANCH   1   7
BRANCH   4  11
HETATM   11  N   LIG     1      18.471  34.105  13.450  1.00  0.00    -0.399 N 
HETATM   12  H   LIG     1      19.451  33.994  13.792  1.00  0.00     0.156 HD
HETATM   13  H   LIG     1      18.270  34.855  12.752  1.00  0.00     0.156 HD
ENDBRANCH   4  11
TORSDOF 3
ENDMDL
