MODEL 1
REMARK VINA RESULT:      -6.8      0.000      0.000
REMARK  0 active torsions:
REMARK  status: ('A' for Active; 'I' for Inactive)
ROOT
HETATM    1  C   LIG     1      16.716  35.410  24.185  1.00  0.00     0.049 C 
HETATM    2  C   LIG     1      17.205  36.486  23.234  1.00  0.00    -0.050 A 
HETATM    3  C   LIG     1      17.528  37.781  23.711  1.00  0.00    -0.055 A 
HETATM    4  C   LIG     1      17.361  38.168  25.161  1.00  0.00     0.049 C 
HETATM    5  C   LIG     1      18.010  38.748  22.822  1.00  0.00     0.014 A 
HETATM    6  C   LIG     1      18.201  38.462  21.467  1.00  0.00    -0.055 A 
HETATM    7  C   LIG     1      18.726  39.558  20.571  1.00  0.00     0.049 C 
HETATM    8  C   LIG     1      17.930  37.162  20.979  1.00  0.00    -0.050 A 
HETATM    9  C   LIG     1      18.209  36.821  19.527  1.00  0.00     0.049 C 
HETATM   10  C   LIG     1      17.351  36.194  21.848  1.00  0.00    -0.049 A 
HETATM   11  C   LIG     1      16.954  34.833  21.305  1.00  0.00     0.049 C 
ENDROOT
TORSDOF 0
ENDMDL
MODEL 2
REMARK VINA RESULT:      -6.5      1.542      3.218
REMARK  0 active torsions:
REMARK  status: ('A' for Active; 'I' for Inactive)
ROOT
HETATM    1  C   LIG     1      15.140  37.394  23.118  1.00  0.00     0.049 C 
HETATM    2  C   LIG     1      16.304  37.220  22.159  1.00  0.00    -0.050 A 
HETATM    3  C   LIG     1      16.424  36.047  21.372  1.00  0.00    -0.055 A 
HETATM    4  C   LIG     1      15.443  34.904  21.479  1.00  0.00     0.049 C 
HETATM    5  C   LIG     1      17.485  35.923  20.469  1.00  0.00     0.014 A 
HETATM    6  C   LIG     1      18.427  36.943  20.307  1.00  0.00    -0.055 A 
HETATM    7  C   LIG     1      19.543  36.734  19.312  1.00  0.00     0.049 C 
HETATM    8  C   LIG     1      18.300  38.142  21.048  1.00  0.00    -0.050 A 
HETATM    9  C   LIG     1      19.272  39.284  20.821  1.00  0.00     0.049 C 
HETATM   10  C   LIG     1      17.282  38.247  22.038  1.00  0.00    -0.049 A 
HETATM   11  C   LIG     1      17.206  39.485  22.914  1.00  0.00     0.049 C 
ENDROOT
TORSDOF 0
ENDMDL
MODEL 3
REMARK VINA RESULT:      -6.3      1.565      4.339
REMARK  0 active torsions:
REMARK  status: ('A' for Active; 'I' for Inactive)
ROOT
HETATM    1  C   LIG     1      19.337  39.261  20.933  1.00  0.00     0.049 C 
HETATM    2  C   LIG     1      18.306  38.155  21.069  1.00  0.00    -0.050 A 
HETATM    3  C   LIG     1      18.416  36.966  20.304  1.00  0.00    -0.055 A 
HETATM    4  C   LIG     1      19.521  36.759  19.296  1.00  0.00     0.049 C 
HETATM    5  C   LIG     1      17.475  35.945  20.471  1.00  0.00     0.014 A 
HETATM    6  C   LIG     1      16.429  36.060  21.392  1.00  0.00    -0.055 A 
HETATM    7  C   LIG     1      15.454  34.914  21.514  1.00  0.00     0.049 C 
HETATM    8  C   LIG     1      16.328  37.218  22.199  1.00  0.00    -0.050 A 
HETATM    9  C   LIG     1      15.244  37.317  23.256  1.00  0.00     0.049 C 
HETATM   10  C   LIG     1      17.221  38.305  21.978  1.00  0.00    -0.049 A 
HETATM   11  C   LIG     1      17.050  39.594  22.761  1.00  0.00     0.049 C 
ENDROOT
TORSDOF 0
ENDMDL
MODEL 4
REMARK VINA RESULT:      -6.3      1.296      4.705
REMARK  0 active torsions:
REMARK  status: ('A' for Active; 'I' for Inactive)
ROOT
HETATM    1  C   LIG     1      17.389  37.917  21.418  1.00  0.00     0.049 C 
HETATM    2  C   LIG     1      17.337  37.057  22.667  1.00  0.00    -0.050 A 
HETATM    3  C   LIG     1      17.079  35.666  22.578  1.00  0.00    -0.055 A 
HETATM    4  C   LIG     1      16.800  34.983  21.261  1.00  0.00     0.049 C 
HETATM    5  C   LIG     1      17.071  34.887  23.740  1.00  0.00     0.014 A 
HETATM    6  C   LIG     1      17.330  35.446  24.995  1.00  0.00    -0.055 A 
HETATM    7  C   LIG     1      17.303  34.538  26.202  1.00  0.00     0.049 C 
HETATM    8  C   LIG     1      17.636  36.823  25.101  1.00  0.00    -0.050 A 
HETATM    9  C   LIG     1      17.996  37.421  26.448  1.00  0.00     0.049 C 
HETATM   10  C   LIG     1      17.557  37.649  23.944  1.00  0.00    -0.049 A 
HETATM   11  C   LIG     1      17.775  39.146  24.068  1.00  0.00     0.049 C 
ENDROOT
TORSDOF 0
ENDMDL
MODEL 5
REMARK VINA RESULT:      -6.1      1.293      3.422
REMARK  0 active torsions:
REMARK  status: ('A' for Active; 'I' for Inactive)
ROOT
HETATM    1  C   LIG     1      18.060  37.496  26.288  1.00  0.00     0.049 C 
HETATM    2  C   LIG     1      17.710  36.804  24.984  1.00  0.00    -0.050 A 
HETATM    3  C   LIG     1      17.304  35.446  24.972  1.00  0.00    -0.055 A 
HETATM    4  C   LIG     1      17.243  34.614  26.230  1.00  0.00     0.049 C 
HETATM    5  C   LIG     1      16.952  34.838  23.762  1.00  0.00     0.014 A 
HETATM    6  C   LIG     1      16.973  35.546  22.556  1.00  0.00    -0.055 A 
HETATM    7  C   LIG     1      16.580  34.820  21.293  1.00  0.00     0.049 C 
HETATM    8  C   LIG     1      17.331  36.915  22.552  1.00  0.00    -0.050 A 
HETATM    9  C   LIG     1      17.281  37.711  21.262  1.00  0.00     0.049 C 
HETATM   10  C   LIG     1      17.781  37.525  23.758  1.00  0.00    -0.049 A 
HETATM   11  C   LIG     1      18.272  38.961  23.741  1.00  0.00     0.049 C 
ENDROOT
TORSDOF 0
ENDMDL
MODEL 6
REMARK VINA RESULT:      -5.9      0.877      3.908
REMARK  0 active torsions:
REMARK  status: ('A' for Active; 'I' for Inactive)
ROOT
HETATM    1  C   LIG     1      18.089  36.439  19.074  1.00  0.00     0.049 C 
HETATM    2  C   LIG     1      17.743  36.778  20.512  1.00  0.00    -0.050 A 
HETATM    3  C   LIG     1      16.949  35.900  21.291  1.00  0.00    -0.055 A 
HETATM    4  C   LIG     1      16.375  34.622  20.728  1.00  0.00     0.049 C 
HETATM    5  C   LIG     1      16.672  36.216  22.625  1.00  0.00     0.014 A 
HETATM    6  C   LIG     1      17.177  37.376  23.221  1.00  0.00    -0.055 A 
HETATM    7  C   LIG     1      16.833  37.647  24.666  1.00  0.00     0.049 C 
HETATM    8  C   LIG     1      18.010  38.242  22.474  1.00  0.00    -0.050 A 
HETATM    9  C   LIG     1      18.625  39.462  23.135  1.00  0.00     0.049 C 
HETATM   10  C   LIG     1      18.225  37.986  21.090  1.00  0.00    -0.049 A 
HETATM   11  C   LIG     1      19.026  38.970  20.256  1.00  0.00     0.049 C 
ENDROOT
TORSDOF 0
ENDMDL
MODEL 7
REMARK VINA RESULT:      -5.7      7.279      9.795
REMARK  0 active torsions:
REMARK  status: ('A' for Active; 'I' for Inactive)
ROOT
HETATM    1  C   LIG     1      13.063  29.722  15.277  1.00  0.00     0.049 C 
HETATM    2  C   LIG     1      14.230  30.690  15.224  1.00  0.00    -0.050 A 
HETATM    3  C   LIG     1      15.294  30.491  14.308  1.00  0.00    -0.055 A 
HETATM    4  C   LIG     1      15.345  29.300  13.383  1.00  0.00     0.049 C 
HETATM    5  C   LIG     1      16.343  31.415  14.253  1.00  0.00     0.014 A 
HETATM    6  C   LIG     1      16.360  32.549  15.071  1.00  0.00    -0.055 A 
HETATM    7  C   LIG     1      17.528  33.499  14.952  1.00  0.00     0.049 C 
HETATM    8  C   LIG     1      15.286  32.791  15.959  1.00  0.00    -0.050 A 
HETATM    9  C   LIG     1      15.258  34.058  16.793  1.00  0.00     0.049 C 
HETATM   10  C   LIG     1      14.258  31.815  16.096  1.00  0.00    -0.049 A 
HETATM   11  C   LIG     1      13.160  32.014  17.126  1.00  0.00     0.049 C 
ENDROOT
TORSDOF 0
ENDMDL
MODEL 8
REMARK VINA RESULT:      -5.7      7.066      9.948
REMARK  0 active torsions:
REMARK  status: ('A' for Active; 'I' for Inactive)
ROOT
HETATM    1  C   LIG     1      17.038  34.263  15.617  1.00  0.00     0.049 C 
HETATM    2  C   LIG     1      16.206  33.048  15.250  1.00  0.00    -0.050 A 
HETATM    3  C   LIG     1      16.408  32.378  14.017  1.00  0.00    -0.055 A 
HETATM    4  C   LIG     1      17.413  32.857  12.998  1.00  0.00     0.049 C 
HETATM    5  C   LIG     1      15.653  31.239  13.715  1.00  0.00     0.014 A 
HETATM    6  C   LIG     1      14.710  30.730  14.613  1.00  0.00    -0.055 A 
HETATM    7  C   LIG     1      13.936  29.496  14.214  1.00  0.00     0.049 C 
HETATM    8  C   LIG     1      14.526  31.355  15.868  1.00  0.00    -0.050 A 
HETATM    9  C   LIG     1      13.562  30.764  16.879  1.00  0.00     0.049 C 
HETATM   10  C   LIG     1      15.216  32.568  16.154  1.00  0.00    -0.049 A 
HETATM   11  C   LIG     1      14.941  33.305  17.452  1.00  0.00     0.049 C 
ENDROOT
TORSDOF 0
ENDMDL
MODEL 9
REMARK VINA RESULT:      -5.4      7.037      9.668
REMARK  0 active torsions:
REMARK  status: ('A' for Active; 'I' for Inactive)
ROOT
HETATM    1  C   LIG     1      15.811  31.107  12.919  1.00  0.00     0.049 C 
HETATM    2  C   LIG     1      15.547  31.463  14.371  1.00  0.00    -0.050 A 
HETATM    3  C   LIG     1      16.332  32.442  15.030  1.00  0.00    -0.055 A 
HETATM    4  C   LIG     1      17.485  33.139  14.348  1.00  0.00     0.049 C 
HETATM    5  C   LIG     1      16.048  32.780  16.357  1.00  0.00     0.014 A 
HETATM    6  C   LIG     1      14.990  32.185  17.051  1.00  0.00    -0.055 A 
HETATM    7  C   LIG     1      14.747  32.603  18.481  1.00  0.00     0.049 C 
HETATM    8  C   LIG     1      14.165  31.240  16.397  1.00  0.00    -0.050 A 
HETATM    9  C   LIG     1      12.967  30.648  17.117  1.00  0.00     0.049 C 
HETATM   10  C   LIG     1      14.495  30.815  15.079  1.00  0.00    -0.049 A 
HETATM   11  C   LIG     1      13.682  29.721  14.412  1.00  0.00     0.049 C 
ENDROOT
TORSDOF 0
ENDMDL
MODEL 10
REMARK VINA RESULT:      -5.3      7.027      9.067
REMARK  0 active torsions:
REMARK  status: ('A' for Active; 'I' for Inactive)
ROOT
HETATM    1  C   LIG     1      13.378  30.994  17.507  1.00  0.00     0.049 C 
HETATM    2  C   LIG     1      14.364  31.537  16.489  1.00  0.00    -0.050 A 
HETATM    3  C   LIG     1      15.199  32.637  16.807  1.00  0.00    -0.055 A 
HETATM    4  C   LIG     1      15.123  33.347  18.137  1.00  0.00     0.049 C 
HETATM    5  C   LIG     1      16.125  33.099  15.865  1.00  0.00     0.014 A 
HETATM    6  C   LIG     1      16.261  32.487  14.615  1.00  0.00    -0.055 A 
HETATM    7  C   LIG     1      17.284  33.044  13.654  1.00  0.00     0.049 C 
HETATM    8  C   LIG     1      15.470  31.359  14.296  1.00  0.00    -0.050 A 
HETATM    9  C   LIG     1      15.666  30.641  12.974  1.00  0.00     0.049 C 
HETATM   10  C   LIG     1      14.458  30.934  15.203  1.00  0.00    -0.049 A 
HETATM   11  C   LIG     1      13.531  29.794  14.821  1.00  0.00     0.049 C 
ENDROOT
TORSDOF 0
ENDMDL
MODEL 11
REMARK VINA RESULT:      -5.1      7.101      9.588
REMARK  0 active torsions:
REMARK  status: ('A' for Active; 'I' for Inactive)
ROOT
HETATM    1  C   LIG     1      16.908  33.367  14.889  1.00  0.00     0.049 C 
HETATM    2  C   LIG     1      15.733  32.561  15.413  1.00  0.00    -0.050 A 
HETATM    3  C   LIG     1      15.034  32.974  16.575  1.00  0.00    -0.055 A 
HETATM    4  C   LIG     1      15.441  34.193  17.367  1.00  0.00     0.049 C 
HETATM    5  C   LIG     1      13.933  32.235  17.019  1.00  0.00     0.014 A 
HETATM    6  C   LIG     1      13.489  31.101  16.333  1.00  0.00    -0.055 A 
HETATM    7  C   LIG     1      12.292  30.358  16.876  1.00  0.00     0.049 C 
HETATM    8  C   LIG     1      14.144  30.699  15.145  1.00  0.00    -0.050 A 
HETATM    9  C   LIG     1      13.621  29.517  14.351  1.00  0.00     0.049 C 
HETATM   10  C   LIG     1      15.322  31.382  14.729  1.00  0.00    -0.049 A 
HETATM   11  C   LIG     1      16.094  30.888  13.519  1.00  0.00     0.049 C 
ENDROOT
TORSDOF 0
ENDMDL
MODEL 12
REMARK VINA RESULT:      -4.6      8.123     10.608
REMARK  0 active torsions:
REMARK  status: ('A' for Active; 'I' for Inactive)
ROOT
HETATM    1  C   LIG     1      14.957  33.176  16.520  1.00  0.00     0.049 C 
HETATM    2  C   LIG     1      14.492  31.890  15.862  1.00  0.00    -0.050 A 
HETATM    3  C   LIG     1      13.197  31.373  16.121  1.00  0.00    -0.055 A 
HETATM    4  C   LIG     1      12.245  32.037  17.086  1.00  0.00     0.049 C 
HETATM    5  C   LIG     1      12.776  30.205  15.477  1.00  0.00     0.014 A 
HETATM    6  C   LIG     1      13.598  29.539  14.562  1.00  0.00    -0.055 A 
HETATM    7  C   LIG     1      13.071  28.285  13.908  1.00  0.00     0.049 C 
HETATM    8  C   LIG     1      14.875  30.064  14.254  1.00  0.00    -0.050 A 
HETATM    9  C   LIG     1      15.742  29.392  13.206  1.00  0.00     0.049 C 
HETATM   10  C   LIG     1      15.357  31.198  14.969  1.00  0.00    -0.049 A 
HETATM   11  C   LIG     1      16.769  31.700  14.725  1.00  0.00     0.049 C 
ENDROOT
TORSDOF 0
ENDMDL
MODEL 13
REMARK VINA RESULT:      -4.0     15.512     17.744
REMARK  0 active torsions:
REMARK  status: ('A' for Active; 'I' for Inactive)
ROOT
HETATM    1  C   LIG     1      25.471  20.183  16.791  1.00  0.00     0.049 C 
HETATM    2  C   LIG     1      24.760  20.892  17.928  1.00  0.00    -0.050 A 
HETATM    3  C   LIG     1      23.433  20.542  18.282  1.00  0.00    -0.055 A 
HETATM    4  C   LIG     1      22.651  19.492  17.530  1.00  0.00     0.049 C 
HETATM    5  C   LIG     1      22.809  21.185  19.357  1.00  0.00     0.014 A 
HETATM    6  C   LIG     1      23.473  22.159  20.108  1.00  0.00    -0.055 A 
HETATM    7  C   LIG     1      22.732  22.807  21.253  1.00  0.00     0.049 C 
HETATM    8  C   LIG     1      24.814  22.491  19.801  1.00  0.00    -0.050 A 
HETATM    9  C   LIG     1      25.566  23.490  20.660  1.00  0.00     0.049 C 
HETATM   10  C   LIG     1      25.432  21.916  18.654  1.00  0.00    -0.049 A 
HETATM   11  C   LIG     1      26.830  22.349  18.254  1.00  0.00     0.049 C 
ENDROOT
TORSDOF 0
ENDMDL
MODEL 14
REMARK VINA RESULT:      -4.0     15.920     18.381
REMARK  0 active torsions:
REMARK  status: ('A' for Active; 'I' for Inactive)
ROOT
HETATM    1  C   LIG     1      23.218  22.052  18.450  1.00  0.00     0.049 C 
HETATM    2  C   LIG     1      23.067  21.013  19.545  1.00  0.00    -0.050 A 
HETATM    3  C   LIG     1      22.927  19.640  19.226  1.00  0.00    -0.055 A 
HETATM    4  C   LIG     1      22.874  19.148  17.799  1.00  0.00     0.049 C 
HETATM    5  C   LIG     1      22.824  18.696  20.253  1.00  0.00     0.014 A 
HETATM    6  C   LIG     1      22.875  19.073  21.598  1.00  0.00    -0.055 A 
HETATM    7  C   LIG     1      22.758  17.995  22.649  1.00  0.00     0.049 C 
HETATM    8  C   LIG     1      23.062  20.433  21.939  1.00  0.00    -0.050 A 
HETATM    9  C   LIG     1      23.197  20.841  23.394  1.00  0.00     0.049 C 
HETATM   10  C   LIG     1      23.074  21.418  20.910  1.00  0.00    -0.049 A 
HETATM   11  C   LIG     1      23.162  22.889  21.274  1.00  0.00     0.049 C 
ENDROOT
TORSDOF 0
ENDMDL
MODEL 15
REMARK VINA RESULT:      -3.9     16.160     16.827
REMARK  0 active torsions:
REMARK  status: ('A' for Active; 'I' for Inactive)
ROOT
HETATM    1  C   LIG     1      27.085  24.304  20.938  1.00  0.00     0.049 C 
HETATM    2  C   LIG     1      25.977  23.529  20.250  1.00  0.00    -0.050 A 
HETATM    3  C   LIG     1      25.842  23.558  18.839  1.00  0.00    -0.055 A 
HETATM    4  C   LIG     1      26.750  24.384  17.962  1.00  0.00     0.049 C 
HETATM    5  C   LIG     1      24.834  22.807  18.224  1.00  0.00     0.014 A 
HETATM    6  C   LIG     1      23.960  22.009  18.969  1.00  0.00    -0.055 A 
HETATM    7  C   LIG     1      22.899  21.229  18.232  1.00  0.00     0.049 C 
HETATM    8  C   LIG     1      24.107  21.930  20.374  1.00  0.00    -0.050 A 
HETATM    9  C   LIG     1      23.215  21.007  21.182  1.00  0.00     0.049 C 
HETATM   10  C   LIG     1      25.065  22.758  21.026  1.00  0.00    -0.049 A 
HETATM   11  C   LIG     1      25.154  22.762  22.541  1.00  0.00     0.049 C 
ENDROOT
TORSDOF 0
ENDMDL
MODEL 16
REMARK VINA RESULT:      -3.9     16.237     17.017
REMARK  0 active torsions:
REMARK  status: ('A' for Active; 'I' for Inactive)
ROOT
HETATM    1  C   LIG     1      25.471  23.286  18.379  1.00  0.00     0.049 C 
HETATM    2  C   LIG     1      24.862  22.739  19.657  1.00  0.00    -0.050 A 
HETATM    3  C   LIG     1      23.705  21.920  19.614  1.00  0.00    -0.055 A 
HETATM    4  C   LIG     1      23.000  21.592  18.320  1.00  0.00     0.049 C 
HETATM    5  C   LIG     1      23.182  21.398  20.801  1.00  0.00     0.014 A 
HETATM    6  C   LIG     1      23.785  21.649  22.038  1.00  0.00    -0.055 A 
HETATM    7  C   LIG     1      23.159  21.049  23.274  1.00  0.00     0.049 C 
HETATM    8  C   LIG     1      24.966  22.425  22.098  1.00  0.00    -0.050 A 
HETATM    9  C   LIG     1      25.671  22.637  23.424  1.00  0.00     0.049 C 
HETATM   10  C   LIG     1      25.460  23.041  20.913  1.00  0.00    -0.049 A 
HETATM   11  C   LIG     1      26.662  23.965  20.987  1.00  0.00     0.049 C 
ENDROOT
TORSDOF 0
ENDMDL
