REMARK  0 active torsions:
REMARK  status: ('A' for Active; 'I' for Inactive)
ROOT
HETATM    1  C   LIG     1       2.291   1.558  -0.151  1.00  0.00     0.049 C 
HETATM    2  C   LIG     1       1.145   0.564  -0.112  1.00  0.00    -0.050 A 
HETATM    3  C   LIG     1       1.394  -0.830  -0.177  1.00  0.00    -0.055 A 
HETATM    4  C   LIG     1       2.787  -1.391  -0.333  1.00  0.00     0.049 C 
HETATM    5  C   LIG     1       0.325  -1.729  -0.104  1.00  0.00     0.014 A 
HETATM    6  C   LIG     1      -0.992  -1.286   0.051  1.00  0.00    -0.055 A 
HETATM    7  C   LIG     1      -2.091  -2.319   0.122  1.00  0.00     0.049 C 
HETATM    8  C   LIG     1      -1.258   0.099   0.165  1.00  0.00    -0.050 A 
HETATM    9  C   LIG     1      -2.674   0.584   0.412  1.00  0.00     0.049 C 
HETATM   10  C   LIG     1      -0.195   1.032  -0.001  1.00  0.00    -0.049 A 
HETATM   11  C   LIG     1      -0.489   2.521   0.009  1.00  0.00     0.049 C 
ENDROOT
TORSDOF 0
