REMARK  1 active torsions:
REMARK  status: ('A' for Active; 'I' for Inactive)
REMARK    1  A    between atoms: C_5  and  C_6 
ROOT
HETATM    1  C   LIG     1      -0.747   0.017  -0.008  1.00  0.00    -0.004 A 
HETATM    2  C   LIG     1      -1.521  -0.828  -0.822  1.00  0.00     0.015 A 
HETATM    3  C   LIG     1      -2.913  -0.852  -0.698  1.00  0.00     0.025 A 
HETATM    4  C   LIG     1      -3.547  -0.029   0.235  1.00  0.00     0.035 A 
HETATM    5  C   LIG     1      -2.790   0.824   1.042  1.00  0.00     0.048 A 
HETATM    6  C   LIG     1      -1.395   0.856   0.926  1.00  0.00     0.046 A 
HETATM    7 CL   LIG     1      -0.504   2.005   1.921  1.00  0.00    -0.083 Cl
HETATM    8 CL   LIG     1      -5.295  -0.060   0.387  1.00  0.00    -0.084 Cl
ENDROOT
BRANCH   1   9
HETATM    9  C   LIG     1       0.726   0.006  -0.155  1.00  0.00    -0.024 A 
HETATM   10  C   LIG     1       1.552  -0.283   0.945  1.00  0.00     0.014 A 
HETATM   11  C   LIG     1       2.942  -0.309   0.796  1.00  0.00     0.024 A 
HETATM   12  C   LIG     1       3.518  -0.055  -0.452  1.00  0.00     0.034 A 
HETATM   13 CL   LIG     1       5.262  -0.089  -0.637  1.00  0.00    -0.084 Cl
HETATM   14  C   LIG     1       2.703   0.221  -1.554  1.00  0.00     0.024 A 
HETATM   15  C   LIG     1       1.312   0.248  -1.409  1.00  0.00     0.014 A 
ENDBRANCH   1   9
TORSDOF 1
