MODEL 1
REMARK VINA RESULT:      -6.7      0.000      0.000
REMARK  1 active torsions:
REMARK  status: ('A' for Active; 'I' for Inactive)
REMARK    1  A    between atoms: C_5  and  C_6 
ROOT
HETATM    1  C   LIG     1      15.038  33.000  18.275  1.00  0.00    -0.004 A 
HETATM    2  C   LIG     1      15.334  34.335  17.948  1.00  0.00     0.015 A 
HETATM    3  C   LIG     1      15.730  35.237  18.939  1.00  0.00     0.025 A 
HETATM    4  C   LIG     1      15.842  34.816  20.265  1.00  0.00     0.035 A 
HETATM    5  C   LIG     1      15.562  33.489  20.602  1.00  0.00     0.048 A 
HETATM    6  C   LIG     1      15.164  32.577  19.617  1.00  0.00     0.046 A 
HETATM    7 CL   LIG     1      14.897  30.902  20.094  1.00  0.00    -0.083 Cl
HETATM    8 CL   LIG     1      16.342  35.951  21.507  1.00  0.00    -0.084 Cl
ENDROOT
BRANCH   1   9
HETATM    9  C   LIG     1      14.607  32.075  17.203  1.00  0.00    -0.024 A 
HETATM   10  C   LIG     1      13.341  31.465  17.252  1.00  0.00     0.014 A 
HETATM   11  C   LIG     1      12.932  30.606  16.228  1.00  0.00     0.024 A 
HETATM   12  C   LIG     1      13.778  30.355  15.144  1.00  0.00     0.034 A 
HETATM   13 CL   LIG     1      13.262  29.277  13.860  1.00  0.00    -0.084 Cl
HETATM   14  C   LIG     1      15.033  30.967  15.081  1.00  0.00     0.024 A 
HETATM   15  C   LIG     1      15.446  31.827  16.104  1.00  0.00     0.014 A 
ENDBRANCH   1   9
TORSDOF 1
ENDMDL
MODEL 2
REMARK VINA RESULT:      -6.6      1.372      6.093
REMARK  1 active torsions:
REMARK  status: ('A' for Active; 'I' for Inactive)
REMARK    1  A    between atoms: C_5  and  C_6 
ROOT
HETATM    1  C   LIG     1      14.529  31.874  16.915  1.00  0.00    -0.004 A 
HETATM    2  C   LIG     1      13.291  31.225  17.068  1.00  0.00     0.015 A 
HETATM    3  C   LIG     1      12.822  30.351  16.084  1.00  0.00     0.025 A 
HETATM    4  C   LIG     1      13.585  30.111  14.939  1.00  0.00     0.035 A 
HETATM    5  C   LIG     1      14.822  30.741  14.780  1.00  0.00     0.048 A 
HETATM    6  C   LIG     1      15.302  31.618  15.760  1.00  0.00     0.046 A 
HETATM    7 CL   LIG     1      16.900  32.323  15.535  1.00  0.00    -0.083 Cl
HETATM    8 CL   LIG     1      12.994  29.012  13.705  1.00  0.00    -0.084 Cl
ENDROOT
BRANCH   1   9
HETATM    9  C   LIG     1      14.988  32.805  17.970  1.00  0.00    -0.024 A 
HETATM   10  C   LIG     1      15.146  34.174  17.696  1.00  0.00     0.014 A 
HETATM   11  C   LIG     1      15.564  35.052  18.701  1.00  0.00     0.024 A 
HETATM   12  C   LIG     1      15.820  34.572  19.989  1.00  0.00     0.034 A 
HETATM   13 CL   LIG     1      16.343  35.674  21.249  1.00  0.00    -0.084 Cl
HETATM   14  C   LIG     1      15.653  33.213  20.273  1.00  0.00     0.024 A 
HETATM   15  C   LIG     1      15.236  32.332  19.270  1.00  0.00     0.014 A 
ENDBRANCH   1   9
TORSDOF 1
ENDMDL
MODEL 3
REMARK VINA RESULT:      -6.3      6.409      7.786
REMARK  1 active torsions:
REMARK  status: ('A' for Active; 'I' for Inactive)
REMARK    1  A    between atoms: C_5  and  C_6 
ROOT
HETATM    1  C   LIG     1      17.836  36.898  22.536  1.00  0.00    -0.004 A 
HETATM    2  C   LIG     1      18.189  37.532  23.740  1.00  0.00     0.015 A 
HETATM    3  C   LIG     1      17.912  36.925  24.969  1.00  0.00     0.025 A 
HETATM    4  C   LIG     1      17.286  35.677  25.008  1.00  0.00     0.035 A 
HETATM    5  C   LIG     1      16.941  35.031  23.818  1.00  0.00     0.048 A 
HETATM    6  C   LIG     1      17.214  35.630  22.582  1.00  0.00     0.046 A 
HETATM    7 CL   LIG     1      16.820  34.732  21.118  1.00  0.00    -0.083 Cl
HETATM    8 CL   LIG     1      16.942  34.917  26.552  1.00  0.00    -0.084 Cl
ENDROOT
BRANCH   1   9
HETATM    9  C   LIG     1      18.130  37.576  21.253  1.00  0.00    -0.024 A 
HETATM   10  C   LIG     1      18.165  38.979  21.178  1.00  0.00     0.014 A 
HETATM   11  C   LIG     1      18.460  39.613  19.967  1.00  0.00     0.024 A 
HETATM   12  C   LIG     1      18.730  38.853  18.826  1.00  0.00     0.034 A 
HETATM   13 CL   LIG     1      19.101  39.651  17.308  1.00  0.00    -0.084 Cl
HETATM   14  C   LIG     1      18.710  37.457  18.895  1.00  0.00     0.024 A 
HETATM   15  C   LIG     1      18.415  36.819  20.104  1.00  0.00     0.014 A 
ENDBRANCH   1   9
TORSDOF 1
ENDMDL
MODEL 4
REMARK VINA RESULT:      -6.1      1.781      6.443
REMARK  1 active torsions:
REMARK  status: ('A' for Active; 'I' for Inactive)
REMARK    1  A    between atoms: C_5  and  C_6 
ROOT
HETATM    1  C   LIG     1      15.306  33.852  19.243  1.00  0.00    -0.004 A 
HETATM    2  C   LIG     1      15.464  34.385  17.952  1.00  0.00     0.015 A 
HETATM    3  C   LIG     1      15.183  33.608  16.825  1.00  0.00     0.025 A 
HETATM    4  C   LIG     1      14.736  32.294  16.974  1.00  0.00     0.035 A 
HETATM    5  C   LIG     1      14.564  31.756  18.252  1.00  0.00     0.048 A 
HETATM    6  C   LIG     1      14.843  32.525  19.388  1.00  0.00     0.046 A 
HETATM    7 CL   LIG     1      14.537  31.814  20.970  1.00  0.00    -0.083 Cl
HETATM    8 CL   LIG     1      14.382  31.321  15.557  1.00  0.00    -0.084 Cl
ENDROOT
BRANCH   1   9
HETATM    9  C   LIG     1      15.628  34.698  20.415  1.00  0.00    -0.024 A 
HETATM   10  C   LIG     1      16.852  34.548  21.089  1.00  0.00     0.014 A 
HETATM   11  C   LIG     1      17.158  35.362  22.185  1.00  0.00     0.024 A 
HETATM   12  C   LIG     1      16.249  36.335  22.610  1.00  0.00     0.034 A 
HETATM   13 CL   LIG     1      16.635  37.356  23.984  1.00  0.00    -0.084 Cl
HETATM   14  C   LIG     1      15.035  36.499  21.936  1.00  0.00     0.024 A 
HETATM   15  C   LIG     1      14.725  35.687  20.840  1.00  0.00     0.014 A 
ENDBRANCH   1   9
TORSDOF 1
ENDMDL
MODEL 5
REMARK VINA RESULT:      -6.1      2.553      4.347
REMARK  1 active torsions:
REMARK  status: ('A' for Active; 'I' for Inactive)
REMARK    1  A    between atoms: C_5  and  C_6 
ROOT
HETATM    1  C   LIG     1      14.399  30.793  15.409  1.00  0.00    -0.004 A 
HETATM    2  C   LIG     1      13.806  30.947  16.674  1.00  0.00     0.015 A 
HETATM    3  C   LIG     1      14.120  32.049  17.474  1.00  0.00     0.025 A 
HETATM    4  C   LIG     1      15.023  33.011  17.018  1.00  0.00     0.035 A 
HETATM    5  C   LIG     1      15.610  32.876  15.757  1.00  0.00     0.048 A 
HETATM    6  C   LIG     1      15.303  31.776  14.948  1.00  0.00     0.046 A 
HETATM    7 CL   LIG     1      16.020  31.701  13.340  1.00  0.00    -0.083 Cl
HETATM    8 CL   LIG     1      15.413  34.395  18.024  1.00  0.00    -0.084 Cl
ENDROOT
BRANCH   1   9
HETATM    9  C   LIG     1      14.056  29.605  14.594  1.00  0.00    -0.024 A 
HETATM   10  C   LIG     1      15.065  28.754  14.111  1.00  0.00     0.014 A 
HETATM   11  C   LIG     1      14.734  27.625  13.357  1.00  0.00     0.024 A 
HETATM   12  C   LIG     1      13.395  27.331  13.084  1.00  0.00     0.034 A 
HETATM   13 CL   LIG     1      12.982  25.913  12.138  1.00  0.00    -0.084 Cl
HETATM   14  C   LIG     1      12.385  28.166  13.571  1.00  0.00     0.024 A 
HETATM   15  C   LIG     1      12.712  29.297  14.326  1.00  0.00     0.014 A 
ENDBRANCH   1   9
TORSDOF 1
ENDMDL
MODEL 6
REMARK VINA RESULT:      -6.0      6.813      8.516
REMARK  1 active torsions:
REMARK  status: ('A' for Active; 'I' for Inactive)
REMARK    1  A    between atoms: C_5  and  C_6 
ROOT
HETATM    1  C   LIG     1      18.136  37.482  21.067  1.00  0.00    -0.004 A 
HETATM    2  C   LIG     1      18.340  36.711  19.910  1.00  0.00     0.015 A 
HETATM    3  C   LIG     1      18.655  37.325  18.695  1.00  0.00     0.025 A 
HETATM    4  C   LIG     1      18.776  38.715  18.623  1.00  0.00     0.035 A 
HETATM    5  C   LIG     1      18.587  39.492  19.769  1.00  0.00     0.048 A 
HETATM    6  C   LIG     1      18.271  38.887  20.991  1.00  0.00     0.046 A 
HETATM    7 CL   LIG     1      18.117  39.916  22.413  1.00  0.00    -0.083 Cl
HETATM    8 CL   LIG     1      19.174  39.483  17.096  1.00  0.00    -0.084 Cl
ENDROOT
BRANCH   1   9
HETATM    9  C   LIG     1      17.788  36.800  22.334  1.00  0.00    -0.024 A 
HETATM   10  C   LIG     1      17.344  35.467  22.330  1.00  0.00     0.014 A 
HETATM   11  C   LIG     1      17.033  34.822  23.531  1.00  0.00     0.024 A 
HETATM   12  C   LIG     1      17.171  35.500  24.746  1.00  0.00     0.034 A 
HETATM   13 CL   LIG     1      16.782  34.690  26.252  1.00  0.00    -0.084 Cl
HETATM   14  C   LIG     1      17.624  36.823  24.760  1.00  0.00     0.024 A 
HETATM   15  C   LIG     1      17.936  37.471  23.560  1.00  0.00     0.014 A 
ENDBRANCH   1   9
TORSDOF 1
ENDMDL
MODEL 7
REMARK VINA RESULT:      -5.9      6.861      8.018
REMARK  1 active torsions:
REMARK  status: ('A' for Active; 'I' for Inactive)
REMARK    1  A    between atoms: C_5  and  C_6 
ROOT
HETATM    1  C   LIG     1      17.817  36.823  22.389  1.00  0.00    -0.004 A 
HETATM    2  C   LIG     1      17.254  35.536  22.349  1.00  0.00     0.015 A 
HETATM    3  C   LIG     1      16.934  34.865  23.533  1.00  0.00     0.025 A 
HETATM    4  C   LIG     1      17.166  35.475  24.768  1.00  0.00     0.035 A 
HETATM    5  C   LIG     1      17.715  36.759  24.820  1.00  0.00     0.048 A 
HETATM    6  C   LIG     1      18.039  37.439  23.640  1.00  0.00     0.046 A 
HETATM    7 CL   LIG     1      18.660  39.083  23.772  1.00  0.00    -0.083 Cl
HETATM    8 CL   LIG     1      16.761  34.631  26.252  1.00  0.00    -0.084 Cl
ENDROOT
BRANCH   1   9
HETATM    9  C   LIG     1      18.159  37.498  21.116  1.00  0.00    -0.024 A 
HETATM   10  C   LIG     1      18.396  36.749  19.951  1.00  0.00     0.014 A 
HETATM   11  C   LIG     1      18.701  37.393  18.748  1.00  0.00     0.024 A 
HETATM   12  C   LIG     1      18.764  38.788  18.696  1.00  0.00     0.034 A 
HETATM   13 CL   LIG     1      19.146  39.594  17.186  1.00  0.00    -0.084 Cl
HETATM   14  C   LIG     1      18.517  39.541  19.848  1.00  0.00     0.024 A 
HETATM   15  C   LIG     1      18.212  38.901  21.053  1.00  0.00     0.014 A 
ENDBRANCH   1   9
TORSDOF 1
ENDMDL
MODEL 8
REMARK VINA RESULT:      -5.9      3.312      4.448
REMARK  1 active torsions:
REMARK  status: ('A' for Active; 'I' for Inactive)
REMARK    1  A    between atoms: C_5  and  C_6 
ROOT
HETATM    1  C   LIG     1      15.091  30.951  14.473  1.00  0.00    -0.004 A 
HETATM    2  C   LIG     1      15.967  31.486  13.513  1.00  0.00     0.015 A 
HETATM    3  C   LIG     1      16.676  32.661  13.777  1.00  0.00     0.025 A 
HETATM    4  C   LIG     1      16.523  33.310  15.004  1.00  0.00     0.035 A 
HETATM    5  C   LIG     1      15.664  32.782  15.971  1.00  0.00     0.048 A 
HETATM    6  C   LIG     1      14.949  31.606  15.716  1.00  0.00     0.046 A 
HETATM    7 CL   LIG     1      13.938  30.952  17.003  1.00  0.00    -0.083 Cl
HETATM    8 CL   LIG     1      17.416  34.784  15.334  1.00  0.00    -0.084 Cl
ENDROOT
BRANCH   1   9
HETATM    9  C   LIG     1      14.343  29.713  14.154  1.00  0.00    -0.024 A 
HETATM   10  C   LIG     1      12.938  29.704  14.165  1.00  0.00     0.014 A 
HETATM   11  C   LIG     1      12.237  28.537  13.846  1.00  0.00     0.024 A 
HETATM   12  C   LIG     1      12.933  27.373  13.506  1.00  0.00     0.034 A 
HETATM   13 CL   LIG     1      12.052  25.910  13.105  1.00  0.00    -0.084 Cl
HETATM   14  C   LIG     1      14.331  27.377  13.480  1.00  0.00     0.024 A 
HETATM   15  C   LIG     1      15.035  28.543  13.798  1.00  0.00     0.014 A 
ENDBRANCH   1   9
TORSDOF 1
ENDMDL
MODEL 9
REMARK VINA RESULT:      -5.7      2.204      3.696
REMARK  1 active torsions:
REMARK  status: ('A' for Active; 'I' for Inactive)
REMARK    1  A    between atoms: C_5  and  C_6 
ROOT
HETATM    1  C   LIG     1      16.369  35.483  20.189  1.00  0.00    -0.004 A 
HETATM    2  C   LIG     1      17.613  36.015  19.810  1.00  0.00     0.015 A 
HETATM    3  C   LIG     1      18.186  37.065  20.533  1.00  0.00     0.025 A 
HETATM    4  C   LIG     1      17.525  37.591  21.645  1.00  0.00     0.035 A 
HETATM    5  C   LIG     1      16.293  37.063  22.040  1.00  0.00     0.048 A 
HETATM    6  C   LIG     1      15.711  36.011  21.322  1.00  0.00     0.046 A 
HETATM    7 CL   LIG     1      14.192  35.343  21.913  1.00  0.00    -0.083 Cl
HETATM    8 CL   LIG     1      18.247  38.909  22.553  1.00  0.00    -0.084 Cl
ENDROOT
BRANCH   1   9
HETATM    9  C   LIG     1      15.785  34.381  19.392  1.00  0.00    -0.024 A 
HETATM   10  C   LIG     1      15.558  33.121  19.972  1.00  0.00     0.014 A 
HETATM   11  C   LIG     1      14.990  32.089  19.219  1.00  0.00     0.024 A 
HETATM   12  C   LIG     1      14.636  32.309  17.884  1.00  0.00     0.034 A 
HETATM   13 CL   LIG     1      13.922  31.014  16.941  1.00  0.00    -0.084 Cl
HETATM   14  C   LIG     1      14.847  33.563  17.303  1.00  0.00     0.024 A 
HETATM   15  C   LIG     1      15.415  34.598  18.054  1.00  0.00     0.014 A 
ENDBRANCH   1   9
TORSDOF 1
ENDMDL
MODEL 10
REMARK VINA RESULT:      -5.6      5.288      6.929
REMARK  1 active torsions:
REMARK  status: ('A' for Active; 'I' for Inactive)
REMARK    1  A    between atoms: C_5  and  C_6 
ROOT
HETATM    1  C   LIG     1      17.129  33.019  13.705  1.00  0.00    -0.004 A 
HETATM    2  C   LIG     1      16.493  31.827  13.316  1.00  0.00     0.015 A 
HETATM    3  C   LIG     1      15.537  31.232  14.143  1.00  0.00     0.025 A 
HETATM    4  C   LIG     1      15.201  31.822  15.363  1.00  0.00     0.035 A 
HETATM    5  C   LIG     1      15.818  33.013  15.756  1.00  0.00     0.048 A 
HETATM    6  C   LIG     1      16.777  33.618  14.935  1.00  0.00     0.046 A 
HETATM    7 CL   LIG     1      17.465  35.155  15.453  1.00  0.00    -0.083 Cl
HETATM    8 CL   LIG     1      13.998  31.073  16.399  1.00  0.00    -0.084 Cl
ENDROOT
BRANCH   1   9
HETATM    9  C   LIG     1      18.149  33.614  12.812  1.00  0.00    -0.024 A 
HETATM   10  C   LIG     1      17.764  34.403  11.714  1.00  0.00     0.014 A 
HETATM   11  C   LIG     1      18.732  34.977  10.884  1.00  0.00     0.024 A 
HETATM   12  C   LIG     1      20.090  34.775  11.147  1.00  0.00     0.034 A 
HETATM   13 CL   LIG     1      21.303  35.497  10.105  1.00  0.00    -0.084 Cl
HETATM   14  C   LIG     1      20.481  34.002  12.244  1.00  0.00     0.024 A 
HETATM   15  C   LIG     1      19.516  33.426  13.077  1.00  0.00     0.014 A 
ENDBRANCH   1   9
TORSDOF 1
ENDMDL
MODEL 11
REMARK VINA RESULT:      -5.5      2.988      7.789
REMARK  1 active torsions:
REMARK  status: ('A' for Active; 'I' for Inactive)
REMARK    1  A    between atoms: C_5  and  C_6 
ROOT
HETATM    1  C   LIG     1      15.866  34.769  21.182  1.00  0.00    -0.004 A 
HETATM    2  C   LIG     1      15.074  33.629  21.407  1.00  0.00     0.015 A 
HETATM    3  C   LIG     1      14.668  32.826  20.338  1.00  0.00     0.025 A 
HETATM    4  C   LIG     1      15.052  33.148  19.035  1.00  0.00     0.035 A 
HETATM    5  C   LIG     1      15.848  34.272  18.799  1.00  0.00     0.048 A 
HETATM    6  C   LIG     1      16.261  35.083  19.863  1.00  0.00     0.046 A 
HETATM    7 CL   LIG     1      17.323  36.443  19.508  1.00  0.00    -0.083 Cl
HETATM    8 CL   LIG     1      14.541  32.137  17.695  1.00  0.00    -0.084 Cl
ENDROOT
BRANCH   1   9
HETATM    9  C   LIG     1      16.265  35.606  22.336  1.00  0.00    -0.024 A 
HETATM   10  C   LIG     1      15.895  36.961  22.398  1.00  0.00     0.014 A 
HETATM   11  C   LIG     1      16.261  37.742  23.499  1.00  0.00     0.024 A 
HETATM   12  C   LIG     1      16.991  37.177  24.548  1.00  0.00     0.034 A 
HETATM   13 CL   LIG     1      17.448  38.159  25.928  1.00  0.00    -0.084 Cl
HETATM   14  C   LIG     1      17.353  35.827  24.500  1.00  0.00     0.024 A 
HETATM   15  C   LIG     1      16.989  35.042  23.401  1.00  0.00     0.014 A 
ENDBRANCH   1   9
TORSDOF 1
ENDMDL
MODEL 12
REMARK VINA RESULT:      -5.3      1.365      5.863
REMARK  1 active torsions:
REMARK  status: ('A' for Active; 'I' for Inactive)
REMARK    1  A    between atoms: C_5  and  C_6 
ROOT
HETATM    1  C   LIG     1      15.311  32.155  16.699  1.00  0.00    -0.004 A 
HETATM    2  C   LIG     1      16.462  32.117  15.893  1.00  0.00     0.015 A 
HETATM    3  C   LIG     1      16.486  31.347  14.727  1.00  0.00     0.025 A 
HETATM    4  C   LIG     1      15.361  30.611  14.350  1.00  0.00     0.035 A 
HETATM    5  C   LIG     1      14.207  30.649  15.136  1.00  0.00     0.048 A 
HETATM    6  C   LIG     1      14.171  31.417  16.306  1.00  0.00     0.046 A 
HETATM    7 CL   LIG     1      12.663  31.480  17.214  1.00  0.00    -0.083 Cl
HETATM    8 CL   LIG     1      15.394  29.646  12.885  1.00  0.00    -0.084 Cl
ENDROOT
BRANCH   1   9
HETATM    9  C   LIG     1      15.324  32.969  17.935  1.00  0.00    -0.024 A 
HETATM   10  C   LIG     1      15.329  32.351  19.198  1.00  0.00     0.014 A 
HETATM   11  C   LIG     1      15.359  33.126  20.362  1.00  0.00     0.024 A 
HETATM   12  C   LIG     1      15.393  34.520  20.275  1.00  0.00     0.034 A 
HETATM   13 CL   LIG     1      15.432  35.490  21.736  1.00  0.00    -0.084 Cl
HETATM   14  C   LIG     1      15.401  35.142  19.023  1.00  0.00     0.024 A 
HETATM   15  C   LIG     1      15.371  34.371  17.856  1.00  0.00     0.014 A 
ENDBRANCH   1   9
TORSDOF 1
ENDMDL
MODEL 13
REMARK VINA RESULT:      -5.0      4.746      6.270
REMARK  1 active torsions:
REMARK  status: ('A' for Active; 'I' for Inactive)
REMARK    1  A    between atoms: C_5  and  C_6 
ROOT
HETATM    1  C   LIG     1      16.866  33.282  14.408  1.00  0.00    -0.004 A 
HETATM    2  C   LIG     1      16.749  34.041  15.585  1.00  0.00     0.015 A 
HETATM    3  C   LIG     1      15.845  33.667  16.583  1.00  0.00     0.025 A 
HETATM    4  C   LIG     1      15.054  32.529  16.420  1.00  0.00     0.035 A 
HETATM    5  C   LIG     1      15.169  31.758  15.261  1.00  0.00     0.048 A 
HETATM    6  C   LIG     1      16.071  32.124  14.254  1.00  0.00     0.046 A 
HETATM    7 CL   LIG     1      16.220  31.072  12.849  1.00  0.00    -0.083 Cl
HETATM    8 CL   LIG     1      13.921  32.060  17.677  1.00  0.00    -0.084 Cl
ENDROOT
BRANCH   1   9
HETATM    9  C   LIG     1      17.822  33.715  13.364  1.00  0.00    -0.024 A 
HETATM   10  C   LIG     1      17.380  34.450  12.250  1.00  0.00     0.014 A 
HETATM   11  C   LIG     1      18.290  34.871  11.276  1.00  0.00     0.024 A 
HETATM   12  C   LIG     1      19.649  34.571  11.410  1.00  0.00     0.034 A 
HETATM   13 CL   LIG     1      20.789  35.101  10.188  1.00  0.00    -0.084 Cl
HETATM   14  C   LIG     1      20.098  33.851  12.521  1.00  0.00     0.024 A 
HETATM   15  C   LIG     1      19.191  33.428  13.498  1.00  0.00     0.014 A 
ENDBRANCH   1   9
TORSDOF 1
ENDMDL
MODEL 14
REMARK VINA RESULT:      -4.9     19.489     21.012
REMARK  1 active torsions:
REMARK  status: ('A' for Active; 'I' for Inactive)
REMARK    1  A    between atoms: C_5  and  C_6 
ROOT
HETATM    1  C   LIG     1      27.343  29.611  34.732  1.00  0.00    -0.004 A 
HETATM    2  C   LIG     1      26.165  30.324  35.018  1.00  0.00     0.015 A 
HETATM    3  C   LIG     1      26.135  31.255  36.060  1.00  0.00     0.025 A 
HETATM    4  C   LIG     1      27.281  31.489  36.823  1.00  0.00     0.035 A 
HETATM    5  C   LIG     1      28.461  30.796  36.542  1.00  0.00     0.048 A 
HETATM    6  C   LIG     1      28.502  29.861  35.501  1.00  0.00     0.046 A 
HETATM    7 CL   LIG     1      30.039  29.073  35.151  1.00  0.00    -0.083 Cl
HETATM    8 CL   LIG     1      27.240  32.660  38.129  1.00  0.00    -0.084 Cl
ENDROOT
BRANCH   1   9
HETATM    9  C   LIG     1      27.335  28.621  33.632  1.00  0.00    -0.024 A 
HETATM   10  C   LIG     1      26.463  27.520  33.667  1.00  0.00     0.014 A 
HETATM   11  C   LIG     1      26.448  26.598  32.616  1.00  0.00     0.024 A 
HETATM   12  C   LIG     1      27.297  26.771  31.520  1.00  0.00     0.034 A 
HETATM   13 CL   LIG     1      27.276  25.613  30.202  1.00  0.00    -0.084 Cl
HETATM   14  C   LIG     1      28.159  27.870  31.471  1.00  0.00     0.024 A 
HETATM   15  C   LIG     1      28.177  28.795  32.520  1.00  0.00     0.014 A 
ENDBRANCH   1   9
TORSDOF 1
ENDMDL
MODEL 15
REMARK VINA RESULT:      -4.8     14.099     15.506
REMARK  1 active torsions:
REMARK  status: ('A' for Active; 'I' for Inactive)
REMARK    1  A    between atoms: C_5  and  C_6 
ROOT
HETATM    1  C   LIG     1      25.032  22.198  18.936  1.00  0.00    -0.004 A 
HETATM    2  C   LIG     1      23.826  22.200  18.215  1.00  0.00     0.015 A 
HETATM    3  C   LIG     1      22.975  21.092  18.254  1.00  0.00     0.025 A 
HETATM    4  C   LIG     1      23.316  19.973  19.016  1.00  0.00     0.035 A 
HETATM    5  C   LIG     1      24.507  19.963  19.747  1.00  0.00     0.048 A 
HETATM    6  C   LIG     1      25.367  21.068  19.715  1.00  0.00     0.046 A 
HETATM    7 CL   LIG     1      26.817  21.022  20.714  1.00  0.00    -0.083 Cl
HETATM    8 CL   LIG     1      22.245  18.584  19.064  1.00  0.00    -0.084 Cl
ENDROOT
BRANCH   1   9
HETATM    9  C   LIG     1      25.917  23.382  18.860  1.00  0.00    -0.024 A 
HETATM   10  C   LIG     1      26.851  23.511  17.817  1.00  0.00     0.014 A 
HETATM   11  C   LIG     1      27.672  24.640  17.742  1.00  0.00     0.024 A 
HETATM   12  C   LIG     1      27.563  25.652  18.700  1.00  0.00     0.034 A 
HETATM   13 CL   LIG     1      28.594  27.068  18.603  1.00  0.00    -0.084 Cl
HETATM   14  C   LIG     1      26.629  25.537  19.734  1.00  0.00     0.024 A 
HETATM   15  C   LIG     1      25.805  24.409  19.813  1.00  0.00     0.014 A 
ENDBRANCH   1   9
TORSDOF 1
ENDMDL
MODEL 16
REMARK VINA RESULT:      -4.7     13.925     14.998
REMARK  1 active torsions:
REMARK  status: ('A' for Active; 'I' for Inactive)
REMARK    1  A    between atoms: C_5  and  C_6 
ROOT
HETATM    1  C   LIG     1      25.315  23.103  20.363  1.00  0.00    -0.004 A 
HETATM    2  C   LIG     1      25.488  23.009  21.754  1.00  0.00     0.015 A 
HETATM    3  C   LIG     1      24.613  22.239  22.527  1.00  0.00     0.025 A 
HETATM    4  C   LIG     1      23.562  21.552  21.918  1.00  0.00     0.035 A 
HETATM    5  C   LIG     1      23.386  21.627  20.534  1.00  0.00     0.048 A 
HETATM    6  C   LIG     1      24.256  22.395  19.751  1.00  0.00     0.046 A 
HETATM    7 CL   LIG     1      24.025  22.392  18.004  1.00  0.00    -0.083 Cl
HETATM    8 CL   LIG     1      22.467  20.585  22.891  1.00  0.00    -0.084 Cl
ENDROOT
BRANCH   1   9
HETATM    9  C   LIG     1      26.250  23.939  19.577  1.00  0.00    -0.024 A 
HETATM   10  C   LIG     1      26.232  25.339  19.698  1.00  0.00     0.014 A 
HETATM   11  C   LIG     1      27.129  26.123  18.966  1.00  0.00     0.024 A 
HETATM   12  C   LIG     1      28.057  25.515  18.114  1.00  0.00     0.034 A 
HETATM   13 CL   LIG     1      29.182  26.500  17.197  1.00  0.00    -0.084 Cl
HETATM   14  C   LIG     1      28.090  24.123  17.997  1.00  0.00     0.024 A 
HETATM   15  C   LIG     1      27.194  23.335  18.728  1.00  0.00     0.014 A 
ENDBRANCH   1   9
TORSDOF 1
ENDMDL
MODEL 17
REMARK VINA RESULT:      -4.6     14.070     15.596
REMARK  1 active torsions:
REMARK  status: ('A' for Active; 'I' for Inactive)
REMARK    1  A    between atoms: C_5  and  C_6 
ROOT
HETATM    1  C   LIG     1      25.148  22.441  19.556  1.00  0.00    -0.004 A 
HETATM    2  C   LIG     1      25.517  21.761  18.382  1.00  0.00     0.015 A 
HETATM    3  C   LIG     1      24.611  20.913  17.740  1.00  0.00     0.025 A 
HETATM    4  C   LIG     1      23.326  20.739  18.258  1.00  0.00     0.035 A 
HETATM    5  C   LIG     1      22.943  21.418  19.417  1.00  0.00     0.048 A 
HETATM    6  C   LIG     1      23.843  22.270  20.069  1.00  0.00     0.046 A 
HETATM    7 CL   LIG     1      23.276  23.153  21.484  1.00  0.00    -0.083 Cl
HETATM    8 CL   LIG     1      22.191  19.674  17.448  1.00  0.00    -0.084 Cl
ENDROOT
BRANCH   1   9
HETATM    9  C   LIG     1      26.138  23.320  20.219  1.00  0.00    -0.024 A 
HETATM   10  C   LIG     1      26.374  24.620  19.740  1.00  0.00     0.014 A 
HETATM   11  C   LIG     1      27.297  25.452  20.381  1.00  0.00     0.024 A 
HETATM   12  C   LIG     1      27.985  24.996  21.509  1.00  0.00     0.034 A 
HETATM   13 CL   LIG     1      29.142  26.042  22.313  1.00  0.00    -0.084 Cl
HETATM   14  C   LIG     1      27.747  23.709  22.000  1.00  0.00     0.024 A 
HETATM   15  C   LIG     1      26.824  22.874  21.361  1.00  0.00     0.014 A 
ENDBRANCH   1   9
TORSDOF 1
ENDMDL
MODEL 18
REMARK VINA RESULT:      -4.5      4.280      6.123
REMARK  1 active torsions:
REMARK  status: ('A' for Active; 'I' for Inactive)
REMARK    1  A    between atoms: C_5  and  C_6 
ROOT
HETATM    1  C   LIG     1      16.225  32.385  14.593  1.00  0.00    -0.004 A 
HETATM    2  C   LIG     1      15.657  31.203  14.089  1.00  0.00     0.015 A 
HETATM    3  C   LIG     1      14.580  30.598  14.744  1.00  0.00     0.025 A 
HETATM    4  C   LIG     1      14.057  31.170  15.906  1.00  0.00     0.035 A 
HETATM    5  C   LIG     1      14.605  32.352  16.410  1.00  0.00     0.048 A 
HETATM    6  C   LIG     1      15.684  32.966  15.762  1.00  0.00     0.046 A 
HETATM    7 CL   LIG     1      16.283  34.492  16.407  1.00  0.00    -0.083 Cl
HETATM    8 CL   LIG     1      12.704  30.410  16.725  1.00  0.00    -0.084 Cl
ENDROOT
BRANCH   1   9
HETATM    9  C   LIG     1      17.374  32.991  13.883  1.00  0.00    -0.024 A 
HETATM   10  C   LIG     1      18.663  32.950  14.442  1.00  0.00     0.014 A 
HETATM   11  C   LIG     1      19.747  33.508  13.758  1.00  0.00     0.024 A 
HETATM   12  C   LIG     1      19.556  34.104  12.509  1.00  0.00     0.034 A 
HETATM   13 CL   LIG     1      20.918  34.803  11.652  1.00  0.00    -0.084 Cl
HETATM   14  C   LIG     1      18.279  34.138  11.939  1.00  0.00     0.024 A 
HETATM   15  C   LIG     1      17.192  33.581  12.620  1.00  0.00     0.014 A 
ENDBRANCH   1   9
TORSDOF 1
ENDMDL
MODEL 19
REMARK VINA RESULT:      -4.5     14.546     15.247
REMARK  1 active torsions:
REMARK  status: ('A' for Active; 'I' for Inactive)
REMARK    1  A    between atoms: C_5  and  C_6 
ROOT
HETATM    1  C   LIG     1      24.573  22.151  23.901  1.00  0.00    -0.004 A 
HETATM    2  C   LIG     1      25.528  23.146  24.172  1.00  0.00     0.015 A 
HETATM    3  C   LIG     1      25.943  23.392  25.484  1.00  0.00     0.025 A 
HETATM    4  C   LIG     1      25.415  22.643  26.537  1.00  0.00     0.035 A 
HETATM    5  C   LIG     1      24.474  21.643  26.279  1.00  0.00     0.048 A 
HETATM    6  C   LIG     1      24.051  21.388  24.969  1.00  0.00     0.046 A 
HETATM    7 CL   LIG     1      22.917  20.066  24.703  1.00  0.00    -0.083 Cl
HETATM    8 CL   LIG     1      25.940  22.952  28.183  1.00  0.00    -0.084 Cl
ENDROOT
BRANCH   1   9
HETATM    9  C   LIG     1      24.144  21.928  22.501  1.00  0.00    -0.024 A 
HETATM   10  C   LIG     1      23.031  22.608  21.978  1.00  0.00     0.014 A 
HETATM   11  C   LIG     1      22.641  22.406  20.651  1.00  0.00     0.024 A 
HETATM   12  C   LIG     1      23.363  21.531  19.833  1.00  0.00     0.034 A 
HETATM   13 CL   LIG     1      22.873  21.280  18.168  1.00  0.00    -0.084 Cl
HETATM   14  C   LIG     1      24.479  20.861  20.342  1.00  0.00     0.024 A 
HETATM   15  C   LIG     1      24.872  21.060  21.670  1.00  0.00     0.014 A 
ENDBRANCH   1   9
TORSDOF 1
ENDMDL
MODEL 20
REMARK VINA RESULT:      -4.4     14.650     16.252
REMARK  1 active torsions:
REMARK  status: ('A' for Active; 'I' for Inactive)
REMARK    1  A    between atoms: C_5  and  C_6 
ROOT
HETATM    1  C   LIG     1      24.167  21.949  22.517  1.00  0.00    -0.004 A 
HETATM    2  C   LIG     1      23.020  22.594  22.022  1.00  0.00     0.015 A 
HETATM    3  C   LIG     1      22.627  22.421  20.692  1.00  0.00     0.025 A 
HETATM    4  C   LIG     1      23.371  21.598  19.844  1.00  0.00     0.035 A 
HETATM    5  C   LIG     1      24.506  20.942  20.326  1.00  0.00     0.048 A 
HETATM    6  C   LIG     1      24.909  21.108  21.657  1.00  0.00     0.046 A 
HETATM    7 CL   LIG     1      26.306  20.197  22.223  1.00  0.00    -0.083 Cl
HETATM    8 CL   LIG     1      22.874  21.381  18.175  1.00  0.00    -0.084 Cl
ENDROOT
BRANCH   1   9
HETATM    9  C   LIG     1      24.563  22.166  23.926  1.00  0.00    -0.024 A 
HETATM   10  C   LIG     1      24.009  21.383  24.953  1.00  0.00     0.014 A 
HETATM   11  C   LIG     1      24.400  21.582  26.281  1.00  0.00     0.024 A 
HETATM   12  C   LIG     1      25.352  22.557  26.593  1.00  0.00     0.034 A 
HETATM   13 CL   LIG     1      25.842  22.804  28.259  1.00  0.00    -0.084 Cl
HETATM   14  C   LIG     1      25.917  23.332  25.576  1.00  0.00     0.024 A 
HETATM   15  C   LIG     1      25.528  23.136  24.246  1.00  0.00     0.014 A 
ENDBRANCH   1   9
TORSDOF 1
ENDMDL
