MODEL 1
REMARK VINA RESULT:      -7.0      0.000      0.000
REMARK  0 active torsions:
REMARK  status: ('A' for Active; 'I' for Inactive)
ROOT
HETATM    1  C   LIG     1      15.431  35.657  22.201  1.00  0.00     0.164 C 
HETATM    2  N   LIG     1      16.415  36.715  21.919  1.00  0.00    -0.269 N 
HETATM    3  C   LIG     1      16.466  37.824  22.748  1.00  0.00     0.330 A 
HETATM    4  N   LIG     1      17.368  38.829  22.517  1.00  0.00    -0.292 N 
HETATM    5  C   LIG     1      18.205  38.715  21.462  1.00  0.00     0.146 A 
HETATM    6  N   LIG     1      19.149  39.585  21.073  1.00  0.00    -0.292 N 
HETATM    7  C   LIG     1      18.180  37.647  20.634  1.00  0.00     0.150 A 
HETATM    8  C   LIG     1      17.277  36.616  20.846  1.00  0.00     0.281 A 
HETATM    9  O   LIG     1      17.258  35.621  20.070  1.00  0.00    -0.265 OA
HETATM   10  N   LIG     1      19.113  37.794  19.677  1.00  0.00    -0.301 N 
HETATM   11  C   LIG     1      19.682  38.987  19.979  1.00  0.00     0.326 A 
HETATM   12  O   LIG     1      20.619  39.492  19.306  1.00  0.00    -0.247 OA
HETATM   13  O   LIG     1      15.680  37.921  23.731  1.00  0.00    -0.246 OA
HETATM   14  H   LIG     1      17.411  39.668  23.139  1.00  0.00     0.172 HD
HETATM   15  H   LIG     1      19.409  40.499  21.507  1.00  0.00     0.172 HD
HETATM   16  H   LIG     1      19.345  37.146  18.891  1.00  0.00     0.171 HD
ENDROOT
TORSDOF 0
ENDMDL
MODEL 2
REMARK VINA RESULT:      -6.5      1.827      4.328
REMARK  0 active torsions:
REMARK  status: ('A' for Active; 'I' for Inactive)
ROOT
HETATM    1  C   LIG     1      18.447  38.812  21.507  1.00  0.00     0.164 C 
HETATM    2  N   LIG     1      17.408  37.771  21.551  1.00  0.00    -0.269 N 
HETATM    3  C   LIG     1      16.281  37.978  22.329  1.00  0.00     0.330 A 
HETATM    4  N   LIG     1      15.292  37.030  22.394  1.00  0.00    -0.292 N 
HETATM    5  C   LIG     1      15.443  35.891  21.684  1.00  0.00     0.146 A 
HETATM    6  N   LIG     1      14.595  34.853  21.618  1.00  0.00    -0.292 N 
HETATM    7  C   LIG     1      16.531  35.658  20.915  1.00  0.00     0.150 A 
HETATM    8  C   LIG     1      17.545  36.601  20.832  1.00  0.00     0.281 A 
HETATM    9  O   LIG     1      18.558  36.379  20.114  1.00  0.00    -0.265 OA
HETATM   10  N   LIG     1      16.420  34.455  20.326  1.00  0.00    -0.301 N 
HETATM   11  C   LIG     1      15.227  33.996  20.778  1.00  0.00     0.326 A 
HETATM   12  O   LIG     1      14.750  32.878  20.450  1.00  0.00    -0.247 OA
HETATM   13  O   LIG     1      16.149  39.045  22.989  1.00  0.00    -0.246 OA
HETATM   14  H   LIG     1      14.440  37.181  22.980  1.00  0.00     0.172 HD
HETATM   15  H   LIG     1      13.674  34.736  22.097  1.00  0.00     0.172 HD
HETATM   16  H   LIG     1      17.089  33.987  19.675  1.00  0.00     0.171 HD
ENDROOT
TORSDOF 0
ENDMDL
MODEL 3
REMARK VINA RESULT:      -6.5      1.228      2.395
REMARK  0 active torsions:
REMARK  status: ('A' for Active; 'I' for Inactive)
ROOT
HETATM    1  C   LIG     1      15.651  37.402  23.429  1.00  0.00     0.164 C 
HETATM    2  N   LIG     1      16.656  37.434  22.353  1.00  0.00    -0.269 N 
HETATM    3  C   LIG     1      16.816  36.318  21.549  1.00  0.00     0.330 A 
HETATM    4  N   LIG     1      17.742  36.310  20.538  1.00  0.00    -0.292 N 
HETATM    5  C   LIG     1      18.494  37.416  20.345  1.00  0.00     0.146 A 
HETATM    6  N   LIG     1      19.446  37.603  19.417  1.00  0.00    -0.292 N 
HETATM    7  C   LIG     1      18.363  38.522  21.112  1.00  0.00     0.150 A 
HETATM    8  C   LIG     1      17.434  38.554  22.142  1.00  0.00     0.281 A 
HETATM    9  O   LIG     1      17.315  39.588  22.855  1.00  0.00    -0.265 OA
HETATM   10  N   LIG     1      19.230  39.463  20.702  1.00  0.00    -0.301 N 
HETATM   11  C   LIG     1      19.871  38.865  19.667  1.00  0.00     0.326 A 
HETATM   12  O   LIG     1      20.778  39.430  19.001  1.00  0.00    -0.247 OA
HETATM   13  O   LIG     1      16.109  35.290  21.738  1.00  0.00    -0.246 OA
HETATM   14  H   LIG     1      17.867  35.471  19.929  1.00  0.00     0.172 HD
HETATM   15  H   LIG     1      19.775  36.937  18.682  1.00  0.00     0.172 HD
HETATM   16  H   LIG     1      19.376  40.423  21.086  1.00  0.00     0.171 HD
ENDROOT
TORSDOF 0
ENDMDL
MODEL 4
REMARK VINA RESULT:      -6.4      7.640      9.202
REMARK  0 active torsions:
REMARK  status: ('A' for Active; 'I' for Inactive)
ROOT
HETATM    1  C   LIG     1      13.427  29.148  14.397  1.00  0.00     0.164 C 
HETATM    2  N   LIG     1      14.163  30.331  14.874  1.00  0.00    -0.269 N 
HETATM    3  C   LIG     1      15.293  30.742  14.186  1.00  0.00     0.330 A 
HETATM    4  N   LIG     1      16.004  31.838  14.600  1.00  0.00    -0.292 N 
HETATM    5  C   LIG     1      15.577  32.508  15.693  1.00  0.00     0.146 A 
HETATM    6  N   LIG     1      16.133  33.595  16.251  1.00  0.00    -0.292 N 
HETATM    7  C   LIG     1      14.479  32.133  16.387  1.00  0.00     0.150 A 
HETATM    8  C   LIG     1      13.743  31.027  15.989  1.00  0.00     0.281 A 
HETATM    9  O   LIG     1      12.718  30.681  16.639  1.00  0.00    -0.265 OA
HETATM   10  N   LIG     1      14.289  32.970  17.421  1.00  0.00    -0.301 N 
HETATM   11  C   LIG     1      15.316  33.847  17.304  1.00  0.00     0.326 A 
HETATM   12  O   LIG     1      15.496  34.806  18.100  1.00  0.00    -0.247 OA
HETATM   13  O   LIG     1      15.683  30.109  13.166  1.00  0.00    -0.246 OA
HETATM   14  H   LIG     1      16.858  32.152  14.085  1.00  0.00     0.172 HD
HETATM   15  H   LIG     1      16.985  34.117  15.947  1.00  0.00     0.172 HD
HETATM   16  H   LIG     1      13.532  32.951  18.141  1.00  0.00     0.171 HD
ENDROOT
TORSDOF 0
ENDMDL
MODEL 5
REMARK VINA RESULT:      -6.3      1.254      3.973
REMARK  0 active torsions:
REMARK  status: ('A' for Active; 'I' for Inactive)
ROOT
HETATM    1  C   LIG     1      18.951  37.339  18.598  1.00  0.00     0.164 C 
HETATM    2  N   LIG     1      18.669  37.784  19.972  1.00  0.00    -0.269 N 
HETATM    3  C   LIG     1      19.249  38.955  20.432  1.00  0.00     0.330 A 
HETATM    4  N   LIG     1      19.010  39.400  21.706  1.00  0.00    -0.292 N 
HETATM    5  C   LIG     1      18.198  38.671  22.502  1.00  0.00     0.146 A 
HETATM    6  N   LIG     1      17.846  38.938  23.770  1.00  0.00    -0.292 N 
HETATM    7  C   LIG     1      17.617  37.524  22.085  1.00  0.00     0.150 A 
HETATM    8  C   LIG     1      17.843  37.052  20.800  1.00  0.00     0.281 A 
HETATM    9  O   LIG     1      17.299  35.981  20.415  1.00  0.00    -0.265 OA
HETATM   10  N   LIG     1      16.867  37.009  23.074  1.00  0.00    -0.301 N 
HETATM   11  C   LIG     1      17.032  37.900  24.084  1.00  0.00     0.326 A 
HETATM   12  O   LIG     1      16.480  37.774  25.209  1.00  0.00    -0.247 OA
HETATM   13  O   LIG     1      20.006  39.629  19.680  1.00  0.00    -0.246 OA
HETATM   14  H   LIG     1      19.445  40.283  22.058  1.00  0.00     0.172 HD
HETATM   15  H   LIG     1      18.130  39.747  24.366  1.00  0.00     0.172 HD
HETATM   16  H   LIG     1      16.294  36.136  23.068  1.00  0.00     0.171 HD
ENDROOT
TORSDOF 0
ENDMDL
MODEL 6
REMARK VINA RESULT:      -6.2      6.758      8.698
REMARK  0 active torsions:
REMARK  status: ('A' for Active; 'I' for Inactive)
ROOT
HETATM    1  C   LIG     1      15.563  31.575  13.765  1.00  0.00     0.164 C 
HETATM    2  N   LIG     1      15.137  31.601  15.173  1.00  0.00    -0.269 N 
HETATM    3  C   LIG     1      14.122  30.752  15.584  1.00  0.00     0.330 A 
HETATM    4  N   LIG     1      13.698  30.748  16.888  1.00  0.00    -0.292 N 
HETATM    5  C   LIG     1      14.292  31.591  17.761  1.00  0.00     0.146 A 
HETATM    6  N   LIG     1      14.019  31.735  19.068  1.00  0.00    -0.292 N 
HETATM    7  C   LIG     1      15.284  32.432  17.392  1.00  0.00     0.150 A 
HETATM    8  C   LIG     1      15.731  32.455  16.079  1.00  0.00     0.281 A 
HETATM    9  O   LIG     1      16.657  33.242  15.740  1.00  0.00    -0.265 OA
HETATM   10  N   LIG     1      15.686  33.151  18.454  1.00  0.00    -0.301 N 
HETATM   11  C   LIG     1      14.893  32.697  19.456  1.00  0.00     0.326 A 
HETATM   12  O   LIG     1      14.960  33.130  20.637  1.00  0.00    -0.247 OA
HETATM   13  O   LIG     1      13.574  29.968  14.761  1.00  0.00    -0.246 OA
HETATM   14  H   LIG     1      12.933  30.109  17.203  1.00  0.00     0.172 HD
HETATM   15  H   LIG     1      13.309  31.229  19.642  1.00  0.00     0.172 HD
HETATM   16  H   LIG     1      16.431  33.882  18.499  1.00  0.00     0.171 HD
ENDROOT
TORSDOF 0
ENDMDL
MODEL 7
REMARK VINA RESULT:      -6.2      7.684      8.955
REMARK  0 active torsions:
REMARK  status: ('A' for Active; 'I' for Inactive)
ROOT
HETATM    1  C   LIG     1      13.857  31.011  16.854  1.00  0.00     0.164 C 
HETATM    2  N   LIG     1      14.769  31.484  15.801  1.00  0.00    -0.269 N 
HETATM    3  C   LIG     1      14.740  30.868  14.560  1.00  0.00     0.330 A 
HETATM    4  N   LIG     1      15.575  31.280  13.554  1.00  0.00    -0.292 N 
HETATM    5  C   LIG     1      16.427  32.300  13.801  1.00  0.00     0.146 A 
HETATM    6  N   LIG     1      17.316  32.842  12.954  1.00  0.00    -0.292 N 
HETATM    7  C   LIG     1      16.481  32.921  15.001  1.00  0.00     0.150 A 
HETATM    8  C   LIG     1      15.647  32.523  16.034  1.00  0.00     0.281 A 
HETATM    9  O   LIG     1      15.701  33.106  17.152  1.00  0.00    -0.265 OA
HETATM   10  N   LIG     1      17.412  33.891  14.967  1.00  0.00    -0.301 N 
HETATM   11  C   LIG     1      17.897  33.811  13.703  1.00  0.00     0.326 A 
HETATM   12  O   LIG     1      18.805  34.567  13.266  1.00  0.00    -0.247 OA
HETATM   13  O   LIG     1      13.940  29.917  14.339  1.00  0.00    -0.246 OA
HETATM   14  H   LIG     1      15.557  30.819  12.617  1.00  0.00     0.172 HD
HETATM   15  H   LIG     1      17.510  32.581  11.962  1.00  0.00     0.172 HD
HETATM   16  H   LIG     1      17.693  34.547  15.729  1.00  0.00     0.171 HD
ENDROOT
TORSDOF 0
ENDMDL
MODEL 8
REMARK VINA RESULT:      -6.2      8.619     10.474
REMARK  0 active torsions:
REMARK  status: ('A' for Active; 'I' for Inactive)
ROOT
HETATM    1  C   LIG     1      14.962  33.530  17.309  1.00  0.00     0.164 C 
HETATM    2  N   LIG     1      14.857  32.407  16.363  1.00  0.00    -0.269 N 
HETATM    3  C   LIG     1      15.905  32.162  15.491  1.00  0.00     0.330 A 
HETATM    4  N   LIG     1      15.843  31.126  14.596  1.00  0.00    -0.292 N 
HETATM    5  C   LIG     1      14.737  30.350  14.583  1.00  0.00     0.146 A 
HETATM    6  N   LIG     1      14.488  29.298  13.788  1.00  0.00    -0.292 N 
HETATM    7  C   LIG     1      13.696  30.563  15.420  1.00  0.00     0.150 A 
HETATM    8  C   LIG     1      13.734  31.605  16.335  1.00  0.00     0.281 A 
HETATM    9  O   LIG     1      12.761  31.799  17.113  1.00  0.00    -0.265 OA
HETATM   10  N   LIG     1      12.737  29.650  15.191  1.00  0.00    -0.301 N 
HETATM   11  C   LIG     1      13.257  28.897  14.190  1.00  0.00     0.326 A 
HETATM   12  O   LIG     1      12.652  27.917  13.680  1.00  0.00    -0.247 OA
HETATM   13  O   LIG     1      16.934  32.892  15.511  1.00  0.00    -0.246 OA
HETATM   14  H   LIG     1      16.631  30.937  13.936  1.00  0.00     0.172 HD
HETATM   15  H   LIG     1      15.096  28.890  13.043  1.00  0.00     0.172 HD
HETATM   16  H   LIG     1      11.814  29.544  15.668  1.00  0.00     0.171 HD
ENDROOT
TORSDOF 0
ENDMDL
MODEL 9
REMARK VINA RESULT:      -6.1      8.416     10.162
REMARK  0 active torsions:
REMARK  status: ('A' for Active; 'I' for Inactive)
ROOT
HETATM    1  C   LIG     1      17.224  33.678  15.036  1.00  0.00     0.164 C 
HETATM    2  N   LIG     1      16.131  32.705  15.194  1.00  0.00    -0.269 N 
HETATM    3  C   LIG     1      15.324  32.777  16.318  1.00  0.00     0.330 A 
HETATM    4  N   LIG     1      14.297  31.888  16.499  1.00  0.00    -0.292 N 
HETATM    5  C   LIG     1      14.089  30.941  15.558  1.00  0.00     0.146 A 
HETATM    6  N   LIG     1      13.144  29.989  15.555  1.00  0.00    -0.292 N 
HETATM    7  C   LIG     1      14.859  30.843  14.451  1.00  0.00     0.150 A 
HETATM    8  C   LIG     1      15.905  31.730  14.243  1.00  0.00     0.281 A 
HETATM    9  O   LIG     1      16.620  31.635  13.208  1.00  0.00    -0.265 OA
HETATM   10  N   LIG     1      14.432  29.819  13.692  1.00  0.00    -0.301 N 
HETATM   11  C   LIG     1      13.386  29.324  14.398  1.00  0.00     0.326 A 
HETATM   12  O   LIG     1      12.703  28.337  14.016  1.00  0.00    -0.247 OA
HETATM   13  O   LIG     1      15.526  33.665  17.191  1.00  0.00    -0.246 OA
HETATM   14  H   LIG     1      13.685  31.938  17.346  1.00  0.00     0.172 HD
HETATM   15  H   LIG     1      12.403  29.807  16.269  1.00  0.00     0.172 HD
HETATM   16  H   LIG     1      14.813  29.485  12.779  1.00  0.00     0.171 HD
ENDROOT
TORSDOF 0
ENDMDL
MODEL 10
REMARK VINA RESULT:      -5.9      7.531      8.478
REMARK  0 active torsions:
REMARK  status: ('A' for Active; 'I' for Inactive)
ROOT
HETATM    1  C   LIG     1      13.675  30.308  15.575  1.00  0.00     0.164 C 
HETATM    2  N   LIG     1      14.705  31.349  15.429  1.00  0.00    -0.269 N 
HETATM    3  C   LIG     1      14.927  32.227  16.478  1.00  0.00     0.330 A 
HETATM    4  N   LIG     1      15.878  33.209  16.379  1.00  0.00    -0.292 N 
HETATM    5  C   LIG     1      16.593  33.301  15.236  1.00  0.00     0.146 A 
HETATM    6  N   LIG     1      17.560  34.187  14.949  1.00  0.00    -0.292 N 
HETATM    7  C   LIG     1      16.402  32.460  14.195  1.00  0.00     0.150 A 
HETATM    8  C   LIG     1      15.446  31.458  14.270  1.00  0.00     0.281 A 
HETATM    9  O   LIG     1      15.270  30.676  13.295  1.00  0.00    -0.265 OA
HETATM   10  N   LIG     1      17.243  32.778  13.196  1.00  0.00    -0.301 N 
HETATM   11  C   LIG     1      17.932  33.834  13.694  1.00  0.00     0.326 A 
HETATM   12  O   LIG     1      18.833  34.433  13.049  1.00  0.00    -0.247 OA
HETATM   13  O   LIG     1      14.253  32.133  17.541  1.00  0.00    -0.246 OA
HETATM   14  H   LIG     1      16.049  33.874  17.167  1.00  0.00     0.172 HD
HETATM   15  H   LIG     1      17.932  34.958  15.547  1.00  0.00     0.172 HD
HETATM   16  H   LIG     1      17.343  32.322  12.261  1.00  0.00     0.171 HD
ENDROOT
TORSDOF 0
ENDMDL
MODEL 11
REMARK VINA RESULT:      -5.9      7.305      9.184
REMARK  0 active torsions:
REMARK  status: ('A' for Active; 'I' for Inactive)
ROOT
HETATM    1  C   LIG     1      17.892  33.562  13.411  1.00  0.00     0.164 C 
HETATM    2  N   LIG     1      16.869  33.206  14.407  1.00  0.00    -0.269 N 
HETATM    3  C   LIG     1      16.641  34.061  15.473  1.00  0.00     0.330 A 
HETATM    4  N   LIG     1      15.697  33.763  16.421  1.00  0.00    -0.292 N 
HETATM    5  C   LIG     1      14.994  32.616  16.291  1.00  0.00     0.146 A 
HETATM    6  N   LIG     1      14.035  32.152  17.108  1.00  0.00    -0.292 N 
HETATM    7  C   LIG     1      15.191  31.760  15.263  1.00  0.00     0.150 A 
HETATM    8  C   LIG     1      16.141  32.039  14.292  1.00  0.00     0.281 A 
HETATM    9  O   LIG     1      16.322  31.238  13.335  1.00  0.00    -0.265 OA
HETATM   10  N   LIG     1      14.362  30.709  15.383  1.00  0.00    -0.301 N 
HETATM   11  C   LIG     1      13.674  30.985  16.519  1.00  0.00     0.326 A 
HETATM   12  O   LIG     1      12.782  30.227  16.984  1.00  0.00    -0.247 OA
HETATM   13  O   LIG     1      17.304  35.130  15.585  1.00  0.00    -0.246 OA
HETATM   14  H   LIG     1      15.522  34.405  17.227  1.00  0.00     0.172 HD
HETATM   15  H   LIG     1      13.661  32.585  17.981  1.00  0.00     0.172 HD
HETATM   16  H   LIG     1      14.269  29.881  14.755  1.00  0.00     0.171 HD
ENDROOT
TORSDOF 0
ENDMDL
MODEL 12
REMARK VINA RESULT:      -5.8      2.529      2.777
REMARK  0 active torsions:
REMARK  status: ('A' for Active; 'I' for Inactive)
ROOT
HETATM    1  C   LIG     1      16.998  34.798  25.557  1.00  0.00     0.164 C 
HETATM    2  N   LIG     1      17.375  35.994  24.786  1.00  0.00    -0.269 N 
HETATM    3  C   LIG     1      17.903  37.086  25.456  1.00  0.00     0.330 A 
HETATM    4  N   LIG     1      18.266  38.217  24.772  1.00  0.00    -0.292 N 
HETATM    5  C   LIG     1      18.096  38.242  23.432  1.00  0.00     0.146 A 
HETATM    6  N   LIG     1      18.387  39.249  22.592  1.00  0.00    -0.292 N 
HETATM    7  C   LIG     1      17.584  37.194  22.749  1.00  0.00     0.150 A 
HETATM    8  C   LIG     1      17.209  36.038  23.417  1.00  0.00     0.281 A 
HETATM    9  O   LIG     1      16.731  35.062  22.776  1.00  0.00    -0.265 OA
HETATM   10  N   LIG     1      17.526  37.491  21.439  1.00  0.00    -0.301 N 
HETATM   11  C   LIG     1      18.025  38.751  21.384  1.00  0.00     0.326 A 
HETATM   12  O   LIG     1      18.141  39.399  20.311  1.00  0.00    -0.247 OA
HETATM   13  O   LIG     1      18.057  37.052  26.708  1.00  0.00    -0.246 OA
HETATM   14  H   LIG     1      18.664  39.043  25.272  1.00  0.00     0.172 HD
HETATM   15  H   LIG     1      18.793  40.184  22.817  1.00  0.00     0.172 HD
HETATM   16  H   LIG     1      17.182  36.896  20.653  1.00  0.00     0.171 HD
ENDROOT
TORSDOF 0
ENDMDL
MODEL 13
REMARK VINA RESULT:      -5.8      5.871      7.725
REMARK  0 active torsions:
REMARK  status: ('A' for Active; 'I' for Inactive)
ROOT
HETATM    1  C   LIG     1      14.414  30.807  14.988  1.00  0.00     0.164 C 
HETATM    2  N   LIG     1      14.770  31.732  16.077  1.00  0.00    -0.269 N 
HETATM    3  C   LIG     1      15.543  32.844  15.789  1.00  0.00     0.330 A 
HETATM    4  N   LIG     1      15.895  33.727  16.777  1.00  0.00    -0.292 N 
HETATM    5  C   LIG     1      15.470  33.487  18.037  1.00  0.00     0.146 A 
HETATM    6  N   LIG     1      15.708  34.227  19.131  1.00  0.00    -0.292 N 
HETATM    7  C   LIG     1      14.715  32.411  18.351  1.00  0.00     0.150 A 
HETATM    8  C   LIG     1      14.346  31.503  17.370  1.00  0.00     0.281 A 
HETATM    9  O   LIG     1      13.641  30.500  17.669  1.00  0.00    -0.265 OA
HETATM   10  N   LIG     1      14.439  32.420  19.667  1.00  0.00    -0.301 N 
HETATM   11  C   LIG     1      15.061  33.542  20.107  1.00  0.00     0.326 A 
HETATM   12  O   LIG     1      15.040  33.914  21.310  1.00  0.00    -0.247 OA
HETATM   13  O   LIG     1      15.935  33.059  14.608  1.00  0.00    -0.246 OA
HETATM   14  H   LIG     1      16.479  34.568  16.564  1.00  0.00     0.172 HD
HETATM   15  H   LIG     1      16.257  35.112  19.210  1.00  0.00     0.172 HD
HETATM   16  H   LIG     1      13.880  31.731  20.218  1.00  0.00     0.171 HD
ENDROOT
TORSDOF 0
ENDMDL
MODEL 14
REMARK VINA RESULT:      -5.7      9.612     11.241
REMARK  0 active torsions:
REMARK  status: ('A' for Active; 'I' for Inactive)
ROOT
HETATM    1  C   LIG     1      15.103  32.767  16.381  1.00  0.00     0.164 C 
HETATM    2  N   LIG     1      14.530  31.555  15.774  1.00  0.00    -0.269 N 
HETATM    3  C   LIG     1      13.233  31.190  16.098  1.00  0.00     0.330 A 
HETATM    4  N   LIG     1      12.665  30.068  15.554  1.00  0.00    -0.292 N 
HETATM    5  C   LIG     1      13.399  29.326  14.695  1.00  0.00     0.146 A 
HETATM    6  N   LIG     1      13.024  28.202  14.064  1.00  0.00    -0.292 N 
HETATM    7  C   LIG     1      14.667  29.654  14.359  1.00  0.00     0.150 A 
HETATM    8  C   LIG     1      15.264  30.784  14.896  1.00  0.00     0.281 A 
HETATM    9  O   LIG     1      16.447  31.086  14.579  1.00  0.00    -0.265 OA
HETATM   10  N   LIG     1      15.155  28.747  13.495  1.00  0.00    -0.301 N 
HETATM   11  C   LIG     1      14.124  27.880  13.339  1.00  0.00     0.326 A 
HETATM   12  O   LIG     1      14.184  26.867  12.593  1.00  0.00    -0.247 OA
HETATM   13  O   LIG     1      12.556  31.890  16.901  1.00  0.00    -0.246 OA
HETATM   14  H   LIG     1      11.687  29.788  15.795  1.00  0.00     0.172 HD
HETATM   15  H   LIG     1      12.109  27.701  14.118  1.00  0.00     0.172 HD
HETATM   16  H   LIG     1      16.099  28.718  13.049  1.00  0.00     0.171 HD
ENDROOT
TORSDOF 0
ENDMDL
MODEL 15
REMARK VINA RESULT:      -5.6      1.988      3.771
REMARK  0 active torsions:
REMARK  status: ('A' for Active; 'I' for Inactive)
ROOT
HETATM    1  C   LIG     1      15.946  34.907  19.460  1.00  0.00     0.164 C 
HETATM    2  N   LIG     1      16.513  35.852  20.435  1.00  0.00    -0.269 N 
HETATM    3  C   LIG     1      17.655  36.562  20.099  1.00  0.00     0.330 A 
HETATM    4  N   LIG     1      18.211  37.450  20.982  1.00  0.00    -0.292 N 
HETATM    5  C   LIG     1      17.622  37.618  22.186  1.00  0.00     0.146 A 
HETATM    6  N   LIG     1      18.013  38.433  23.178  1.00  0.00    -0.292 N 
HETATM    7  C   LIG     1      16.508  36.941  22.545  1.00  0.00     0.150 A 
HETATM    8  C   LIG     1      15.925  36.036  21.670  1.00  0.00     0.281 A 
HETATM    9  O   LIG     1      14.886  35.407  22.010  1.00  0.00    -0.265 OA
HETATM   10  N   LIG     1      16.141  37.299  23.787  1.00  0.00    -0.301 N 
HETATM   11  C   LIG     1      17.082  38.211  24.139  1.00  0.00     0.326 A 
HETATM   12  O   LIG     1      17.091  38.795  25.254  1.00  0.00    -0.247 OA
HETATM   13  O   LIG     1      18.197  36.398  18.972  1.00  0.00    -0.246 OA
HETATM   14  H   LIG     1      19.073  37.988  20.733  1.00  0.00     0.172 HD
HETATM   15  H   LIG     1      18.832  39.080  23.202  1.00  0.00     0.172 HD
HETATM   16  H   LIG     1      15.327  36.960  24.347  1.00  0.00     0.171 HD
ENDROOT
TORSDOF 0
ENDMDL
MODEL 16
REMARK VINA RESULT:      -5.5      4.921      6.696
REMARK  0 active torsions:
REMARK  status: ('A' for Active; 'I' for Inactive)
ROOT
HETATM    1  C   LIG     1      14.666  32.122  15.470  1.00  0.00     0.164 C 
HETATM    2  N   LIG     1      14.789  32.517  16.883  1.00  0.00    -0.269 N 
HETATM    3  C   LIG     1      14.258  31.692  17.861  1.00  0.00     0.330 A 
HETATM    4  N   LIG     1      14.353  32.027  19.186  1.00  0.00    -0.292 N 
HETATM    5  C   LIG     1      14.976  33.179  19.517  1.00  0.00     0.146 A 
HETATM    6  N   LIG     1      15.168  33.677  20.749  1.00  0.00    -0.292 N 
HETATM    7  C   LIG     1      15.505  34.007  18.588  1.00  0.00     0.150 A 
HETATM    8  C   LIG     1      15.422  33.691  17.240  1.00  0.00     0.281 A 
HETATM    9  O   LIG     1      15.917  34.466  16.376  1.00  0.00    -0.265 OA
HETATM   10  N   LIG     1      16.059  35.072  19.192  1.00  0.00    -0.301 N 
HETATM   11  C   LIG     1      15.834  34.834  20.508  1.00  0.00     0.326 A 
HETATM   12  O   LIG     1      16.208  35.615  21.422  1.00  0.00    -0.247 OA
HETATM   13  O   LIG     1      13.677  30.618  17.541  1.00  0.00    -0.246 OA
HETATM   14  H   LIG     1      13.953  31.408  19.928  1.00  0.00     0.172 HD
HETATM   15  H   LIG     1      14.877  33.271  21.666  1.00  0.00     0.172 HD
HETATM   16  H   LIG     1      16.546  35.886  18.755  1.00  0.00     0.171 HD
ENDROOT
TORSDOF 0
ENDMDL
MODEL 17
REMARK VINA RESULT:      -5.5      3.213      4.472
REMARK  0 active torsions:
REMARK  status: ('A' for Active; 'I' for Inactive)
ROOT
HETATM    1  C   LIG     1      15.520  36.466  21.305  1.00  0.00     0.164 C 
HETATM    2  N   LIG     1      16.129  36.823  22.596  1.00  0.00    -0.269 N 
HETATM    3  C   LIG     1      16.041  38.132  23.042  1.00  0.00     0.330 A 
HETATM    4  N   LIG     1      16.596  38.502  24.240  1.00  0.00    -0.292 N 
HETATM    5  C   LIG     1      17.231  37.562  24.974  1.00  0.00     0.146 A 
HETATM    6  N   LIG     1      17.834  37.726  26.162  1.00  0.00    -0.292 N 
HETATM    7  C   LIG     1      17.335  36.277  24.567  1.00  0.00     0.150 A 
HETATM    8  C   LIG     1      16.782  35.877  23.360  1.00  0.00     0.281 A 
HETATM    9  O   LIG     1      16.882  34.677  22.984  1.00  0.00    -0.265 OA
HETATM   10  N   LIG     1      18.013  35.565  25.484  1.00  0.00    -0.301 N 
HETATM   11  C   LIG     1      18.299  36.483  26.440  1.00  0.00     0.326 A 
HETATM   12  O   LIG     1      18.938  36.207  27.490  1.00  0.00    -0.247 OA
HETATM   13  O   LIG     1      15.445  39.002  22.349  1.00  0.00    -0.246 OA
HETATM   14  H   LIG     1      16.532  39.488  24.580  1.00  0.00     0.172 HD
HETATM   15  H   LIG     1      17.922  38.597  26.730  1.00  0.00     0.172 HD
HETATM   16  H   LIG     1      18.259  34.550  25.466  1.00  0.00     0.171 HD
ENDROOT
TORSDOF 0
ENDMDL
MODEL 18
REMARK VINA RESULT:      -5.3      7.541      9.696
REMARK  0 active torsions:
REMARK  status: ('A' for Active; 'I' for Inactive)
ROOT
HETATM    1  C   LIG     1      17.713  34.519  14.719  1.00  0.00     0.164 C 
HETATM    2  N   LIG     1      16.729  33.429  14.820  1.00  0.00    -0.269 N 
HETATM    3  C   LIG     1      16.714  32.446  13.844  1.00  0.00     0.330 A 
HETATM    4  N   LIG     1      15.812  31.415  13.904  1.00  0.00    -0.292 N 
HETATM    5  C   LIG     1      14.940  31.381  14.935  1.00  0.00     0.146 A 
HETATM    6  N   LIG     1      13.988  30.463  15.168  1.00  0.00    -0.292 N 
HETATM    7  C   LIG     1      14.928  32.325  15.903  1.00  0.00     0.150 A 
HETATM    8  C   LIG     1      15.830  33.378  15.865  1.00  0.00     0.281 A 
HETATM    9  O   LIG     1      15.815  34.257  16.770  1.00  0.00    -0.265 OA
HETATM   10  N   LIG     1      13.964  32.046  16.797  1.00  0.00    -0.301 N 
HETATM   11  C   LIG     1      13.414  30.904  16.314  1.00  0.00     0.326 A 
HETATM   12  O   LIG     1      12.459  30.308  16.879  1.00  0.00    -0.247 OA
HETATM   13  O   LIG     1      17.533  32.487  12.885  1.00  0.00    -0.246 OA
HETATM   14  H   LIG     1      15.796  30.671  13.171  1.00  0.00     0.172 HD
HETATM   15  H   LIG     1      13.751  29.617  14.603  1.00  0.00     0.172 HD
HETATM   16  H   LIG     1      13.701  32.578  17.656  1.00  0.00     0.171 HD
ENDROOT
TORSDOF 0
ENDMDL
MODEL 19
REMARK VINA RESULT:      -5.3      4.364      6.156
REMARK  0 active torsions:
REMARK  status: ('A' for Active; 'I' for Inactive)
ROOT
HETATM    1  C   LIG     1      14.071  31.212  17.264  1.00  0.00     0.164 C 
HETATM    2  N   LIG     1      14.661  32.363  17.967  1.00  0.00    -0.269 N 
HETATM    3  C   LIG     1      15.047  33.473  17.233  1.00  0.00     0.330 A 
HETATM    4  N   LIG     1      15.601  34.563  17.852  1.00  0.00    -0.292 N 
HETATM    5  C   LIG     1      15.762  34.530  19.193  1.00  0.00     0.146 A 
HETATM    6  N   LIG     1      16.282  35.489  19.975  1.00  0.00    -0.292 N 
HETATM    7  C   LIG     1      15.397  33.463  19.938  1.00  0.00     0.150 A 
HETATM    8  C   LIG     1      14.835  32.347  19.336  1.00  0.00     0.281 A 
HETATM    9  O   LIG     1      14.496  31.353  20.035  1.00  0.00    -0.265 OA
HETATM   10  N   LIG     1      15.671  33.699  21.232  1.00  0.00    -0.301 N 
HETATM   11  C   LIG     1      16.208  34.944  21.214  1.00  0.00     0.326 A 
HETATM   12  O   LIG     1      16.603  35.539  22.252  1.00  0.00    -0.247 OA
HETATM   13  O   LIG     1      14.891  33.494  15.980  1.00  0.00    -0.246 OA
HETATM   14  H   LIG     1      15.893  35.403  17.302  1.00  0.00     0.172 HD
HETATM   15  H   LIG     1      16.651  36.425  19.695  1.00  0.00     0.172 HD
HETATM   16  H   LIG     1      15.508  33.076  22.055  1.00  0.00     0.171 HD
ENDROOT
TORSDOF 0
ENDMDL
MODEL 20
REMARK VINA RESULT:      -5.1      5.849      7.795
REMARK  0 active torsions:
REMARK  status: ('A' for Active; 'I' for Inactive)
ROOT
HETATM    1  C   LIG     1      15.780  33.748  20.878  1.00  0.00     0.164 C 
HETATM    2  N   LIG     1      15.346  33.355  19.528  1.00  0.00    -0.269 N 
HETATM    3  C   LIG     1      15.573  34.220  18.470  1.00  0.00     0.330 A 
HETATM    4  N   LIG     1      15.182  33.888  17.199  1.00  0.00    -0.292 N 
HETATM    5  C   LIG     1      14.571  32.699  17.002  1.00  0.00     0.146 A 
HETATM    6  N   LIG     1      14.118  32.198  15.842  1.00  0.00    -0.292 N 
HETATM    7  C   LIG     1      14.335  31.833  18.013  1.00  0.00     0.150 A 
HETATM    8  C   LIG     1      14.720  32.145  19.308  1.00  0.00     0.281 A 
HETATM    9  O   LIG     1      14.497  31.333  20.248  1.00  0.00    -0.265 OA
HETATM   10  N   LIG     1      13.718  30.738  17.535  1.00  0.00    -0.301 N 
HETATM   11  C   LIG     1      13.604  30.998  16.209  1.00  0.00     0.326 A 
HETATM   12  O   LIG     1      13.070  30.200  15.395  1.00  0.00    -0.247 OA
HETATM   13  O   LIG     1      16.144  35.328  18.665  1.00  0.00    -0.246 OA
HETATM   14  H   LIG     1      15.351  34.537  16.397  1.00  0.00     0.172 HD
HETATM   15  H   LIG     1      14.155  32.628  14.891  1.00  0.00     0.172 HD
HETATM   16  H   LIG     1      13.403  29.890  18.058  1.00  0.00     0.171 HD
ENDROOT
TORSDOF 0
ENDMDL
