REMARK  0 active torsions:
REMARK  status: ('A' for Active; 'I' for Inactive)
ROOT
HETATM    1  C   LIG     1       2.916  -0.232  -0.489  1.00  0.00     0.164 C 
HETATM    2  N   LIG     1       1.488   0.031  -0.248  1.00  0.00    -0.269 N 
HETATM    3  C   LIG     1       1.052   1.343  -0.158  1.00  0.00     0.330 A 
HETATM    4  N   LIG     1      -0.270   1.627   0.066  1.00  0.00    -0.292 N 
HETATM    5  C   LIG     1      -1.137   0.599   0.197  1.00  0.00     0.146 A 
HETATM    6  N   LIG     1      -2.459   0.671   0.419  1.00  0.00    -0.292 N 
HETATM    7  C   LIG     1      -0.744  -0.692   0.115  1.00  0.00     0.150 A 
HETATM    8  C   LIG     1       0.588  -1.006  -0.111  1.00  0.00     0.281 A 
HETATM    9  O   LIG     1       0.950  -2.212  -0.187  1.00  0.00    -0.265 OA
HETATM   10  N   LIG     1      -1.805  -1.500   0.282  1.00  0.00    -0.301 N 
HETATM   11  C   LIG     1      -2.831  -0.632   0.464  1.00  0.00     0.326 A 
HETATM   12  O   LIG     1      -4.019  -1.002   0.658  1.00  0.00    -0.247 OA
HETATM   13  O   LIG     1       1.870   2.296  -0.282  1.00  0.00    -0.246 OA
HETATM   14  H   LIG     1      -0.604   2.615   0.135  1.00  0.00     0.172 HD
HETATM   15  H   LIG     1      -3.053   1.523   0.529  1.00  0.00     0.172 HD
HETATM   16  H   LIG     1      -1.834  -2.544   0.273  1.00  0.00     0.171 HD
ENDROOT
TORSDOF 0
