REMARK  2 active torsions:
REMARK  status: ('A' for Active; 'I' for Inactive)
REMARK    1  A    between atoms: C_2  and  C_3 
REMARK       I    between atoms: C_2  and  N_5 
REMARK    2  A    between atoms: N_5  and  C_6 
ROOT
HETATM    1  C   LIG     1      -0.852   0.104   0.390  1.00  0.00     0.036 A 
HETATM    2  C   LIG     1      -1.687  -0.735  -0.369  1.00  0.00     0.055 A 
HETATM    3  C   LIG     1      -3.069  -0.510  -0.415  1.00  0.00     0.058 A 
HETATM    4 CL   LIG     1      -4.075  -1.582  -1.381  1.00  0.00    -0.082 Cl
HETATM    5  C   LIG     1      -3.628   0.553   0.313  1.00  0.00     0.055 A 
HETATM    6 CL   LIG     1      -5.358   0.870   0.283  1.00  0.00    -0.083 Cl
HETATM    7  C   LIG     1      -2.803   1.374   1.087  1.00  0.00     0.028 A 
HETATM    8  C   LIG     1      -1.425   1.147   1.132  1.00  0.00     0.031 A 
ENDROOT
BRANCH   1   9
HETATM    9  N   LIG     1       0.566  -0.122   0.470  1.00  0.00    -0.327 N 
HETATM   10  C   LIG     1       1.365  -0.619  -0.615  1.00  0.00     0.221 C 
HETATM   11  O   LIG     1       0.900  -0.668  -1.785  1.00  0.00    -0.273 OA
HETATM   12  H   LIG     1       1.061   0.174   1.342  1.00  0.00     0.169 HD
BRANCH  10  13
HETATM   13  C   LIG     1       2.796  -0.996  -0.378  1.00  0.00     0.098 C 
HETATM   14  C   LIG     1       3.701   0.225  -0.499  1.00  0.00     0.014 C 
ENDBRANCH  10  13
ENDBRANCH   1   9
TORSDOF 2
