MODEL 1
REMARK VINA RESULT:      -7.5      0.000      0.000
REMARK  2 active torsions:
REMARK  status: ('A' for Active; 'I' for Inactive)
REMARK    1  A    between atoms: C_2  and  C_3 
REMARK       I    between atoms: C_2  and  N_5 
REMARK    2  A    between atoms: N_5  and  C_6 
ROOT
HETATM    1  C   LIG     1      16.668  35.553  22.126  1.00  0.00     0.036 A 
HETATM    2  C   LIG     1      17.064  34.983  23.349  1.00  0.00     0.055 A 
HETATM    3  C   LIG     1      17.264  35.789  24.477  1.00  0.00     0.058 A 
HETATM    4 CL   LIG     1      17.754  35.034  25.988  1.00  0.00    -0.082 Cl
HETATM    5  C   LIG     1      17.082  37.179  24.384  1.00  0.00     0.055 A 
HETATM    6 CL   LIG     1      17.323  38.227  25.776  1.00  0.00    -0.083 Cl
HETATM    7  C   LIG     1      16.711  37.750  23.163  1.00  0.00     0.028 A 
HETATM    8  C   LIG     1      16.513  36.944  22.039  1.00  0.00     0.031 A 
ENDROOT
BRANCH   1   9
HETATM    9  N   LIG     1      16.479  34.747  20.949  1.00  0.00    -0.327 N 
HETATM   10  C   LIG     1      15.385  33.835  20.764  1.00  0.00     0.221 C 
HETATM   11  O   LIG     1      14.391  33.861  21.538  1.00  0.00    -0.273 OA
HETATM   12  H   LIG     1      17.129  34.897  20.144  1.00  0.00     0.169 HD
BRANCH  10  13
HETATM   13  C   LIG     1      15.377  32.907  19.588  1.00  0.00     0.098 C 
HETATM   14  C   LIG     1      14.913  31.516  20.004  1.00  0.00     0.014 C 
ENDBRANCH  10  13
ENDBRANCH   1   9
TORSDOF 2
ENDMDL
MODEL 2
REMARK VINA RESULT:      -7.2      0.942      2.050
REMARK  2 active torsions:
REMARK  status: ('A' for Active; 'I' for Inactive)
REMARK    1  A    between atoms: C_2  and  C_3 
REMARK       I    between atoms: C_2  and  N_5 
REMARK    2  A    between atoms: N_5  and  C_6 
ROOT
HETATM    1  C   LIG     1      16.779  35.453  21.941  1.00  0.00     0.036 A 
HETATM    2  C   LIG     1      16.713  36.852  21.816  1.00  0.00     0.055 A 
HETATM    3  C   LIG     1      16.914  37.676  22.932  1.00  0.00     0.058 A 
HETATM    4 CL   LIG     1      16.826  39.421  22.729  1.00  0.00    -0.082 Cl
HETATM    5  C   LIG     1      17.169  37.101  24.187  1.00  0.00     0.055 A 
HETATM    6 CL   LIG     1      17.426  38.099  25.613  1.00  0.00    -0.083 Cl
HETATM    7  C   LIG     1      17.212  35.710  24.318  1.00  0.00     0.028 A 
HETATM    8  C   LIG     1      17.011  34.890  23.204  1.00  0.00     0.031 A 
ENDROOT
BRANCH   1   9
HETATM    9  N   LIG     1      16.554  34.588  20.814  1.00  0.00    -0.327 N 
HETATM   10  C   LIG     1      15.415  33.723  20.678  1.00  0.00     0.221 C 
HETATM   11  O   LIG     1      14.420  33.846  21.441  1.00  0.00    -0.273 OA
HETATM   12  H   LIG     1      17.213  34.654  20.006  1.00  0.00     0.169 HD
BRANCH  10  13
HETATM   13  C   LIG     1      15.364  32.726  19.560  1.00  0.00     0.098 C 
HETATM   14  C   LIG     1      14.875  31.374  20.068  1.00  0.00     0.014 C 
ENDBRANCH  10  13
ENDBRANCH   1   9
TORSDOF 2
ENDMDL
MODEL 3
REMARK VINA RESULT:      -6.6      5.905      8.388
REMARK  2 active torsions:
REMARK  status: ('A' for Active; 'I' for Inactive)
REMARK    1  A    between atoms: C_2  and  C_3 
REMARK       I    between atoms: C_2  and  N_5 
REMARK    2  A    between atoms: N_5  and  C_6 
ROOT
HETATM    1  C   LIG     1      14.830  32.652  17.376  1.00  0.00     0.036 A 
HETATM    2  C   LIG     1      15.570  32.737  16.184  1.00  0.00     0.055 A 
HETATM    3  C   LIG     1      15.339  31.835  15.137  1.00  0.00     0.058 A 
HETATM    4 CL   LIG     1      16.286  31.981  13.662  1.00  0.00    -0.082 Cl
HETATM    5  C   LIG     1      14.370  30.829  15.284  1.00  0.00     0.055 A 
HETATM    6 CL   LIG     1      14.049  29.676  13.994  1.00  0.00    -0.083 Cl
HETATM    7  C   LIG     1      13.649  30.728  16.477  1.00  0.00     0.028 A 
HETATM    8  C   LIG     1      13.882  31.628  17.520  1.00  0.00     0.031 A 
ENDROOT
BRANCH   1   9
HETATM    9  N   LIG     1      15.066  33.553  18.472  1.00  0.00    -0.327 N 
HETATM   10  C   LIG     1      15.476  33.135  19.784  1.00  0.00     0.221 C 
HETATM   11  O   LIG     1      15.880  31.959  19.987  1.00  0.00    -0.273 OA
HETATM   12  H   LIG     1      15.021  34.580  18.281  1.00  0.00     0.169 HD
BRANCH  10  13
HETATM   13  C   LIG     1      15.517  34.128  20.906  1.00  0.00     0.098 C 
HETATM   14  C   LIG     1      16.307  35.367  20.500  1.00  0.00     0.014 C 
ENDBRANCH  10  13
ENDBRANCH   1   9
TORSDOF 2
ENDMDL
MODEL 4
REMARK VINA RESULT:      -6.2      2.739      3.199
REMARK  2 active torsions:
REMARK  status: ('A' for Active; 'I' for Inactive)
REMARK    1  A    between atoms: C_2  and  C_3 
REMARK       I    between atoms: C_2  and  N_5 
REMARK    2  A    between atoms: N_5  and  C_6 
ROOT
HETATM    1  C   LIG     1      16.973  35.795  21.318  1.00  0.00     0.036 A 
HETATM    2  C   LIG     1      17.980  36.239  20.443  1.00  0.00     0.055 A 
HETATM    3  C   LIG     1      18.480  37.544  20.537  1.00  0.00     0.058 A 
HETATM    4 CL   LIG     1      19.743  38.055  19.425  1.00  0.00    -0.082 Cl
HETATM    5  C   LIG     1      17.963  38.422  21.504  1.00  0.00     0.055 A 
HETATM    6 CL   LIG     1      18.562  40.069  21.655  1.00  0.00    -0.083 Cl
HETATM    7  C   LIG     1      16.945  37.991  22.359  1.00  0.00     0.028 A 
HETATM    8  C   LIG     1      16.447  36.689  22.263  1.00  0.00     0.031 A 
ENDROOT
BRANCH   1   9
HETATM    9  N   LIG     1      16.429  34.467  21.225  1.00  0.00    -0.327 N 
HETATM   10  C   LIG     1      15.695  33.975  20.093  1.00  0.00     0.221 C 
HETATM   11  O   LIG     1      15.685  34.614  19.007  1.00  0.00    -0.273 OA
HETATM   12  H   LIG     1      16.654  33.791  21.989  1.00  0.00     0.169 HD
BRANCH  10  13
HETATM   13  C   LIG     1      15.011  32.644  20.166  1.00  0.00     0.098 C 
HETATM   14  C   LIG     1      14.843  32.047  18.773  1.00  0.00     0.014 C 
ENDBRANCH  10  13
ENDBRANCH   1   9
TORSDOF 2
ENDMDL
MODEL 5
REMARK VINA RESULT:      -6.1      3.504      5.420
REMARK  2 active torsions:
REMARK  status: ('A' for Active; 'I' for Inactive)
REMARK    1  A    between atoms: C_2  and  C_3 
REMARK       I    between atoms: C_2  and  N_5 
REMARK    2  A    between atoms: N_5  and  C_6 
ROOT
HETATM    1  C   LIG     1      16.931  35.814  22.491  1.00  0.00     0.036 A 
HETATM    2  C   LIG     1      16.080  34.708  22.321  1.00  0.00     0.055 A 
HETATM    3  C   LIG     1      15.659  34.325  21.040  1.00  0.00     0.058 A 
HETATM    4 CL   LIG     1      14.598  32.932  20.873  1.00  0.00    -0.082 Cl
HETATM    5  C   LIG     1      16.079  35.059  19.919  1.00  0.00     0.055 A 
HETATM    6 CL   LIG     1      15.573  34.613  18.294  1.00  0.00    -0.083 Cl
HETATM    7  C   LIG     1      16.906  36.174  20.088  1.00  0.00     0.028 A 
HETATM    8  C   LIG     1      17.324  36.554  21.366  1.00  0.00     0.031 A 
ENDROOT
BRANCH   1   9
HETATM    9  N   LIG     1      17.357  36.239  23.798  1.00  0.00    -0.327 N 
HETATM   10  C   LIG     1      16.844  37.396  24.476  1.00  0.00     0.221 C 
HETATM   11  O   LIG     1      15.812  37.982  24.054  1.00  0.00    -0.273 OA
HETATM   12  H   LIG     1      18.017  35.621  24.323  1.00  0.00     0.169 HD
BRANCH  10  13
HETATM   13  C   LIG     1      17.482  37.860  25.750  1.00  0.00     0.098 C 
HETATM   14  C   LIG     1      18.380  36.773  26.329  1.00  0.00     0.014 C 
ENDBRANCH  10  13
ENDBRANCH   1   9
TORSDOF 2
ENDMDL
MODEL 6
REMARK VINA RESULT:      -6.1      3.656      5.612
REMARK  2 active torsions:
REMARK  status: ('A' for Active; 'I' for Inactive)
REMARK    1  A    between atoms: C_2  and  C_3 
REMARK       I    between atoms: C_2  and  N_5 
REMARK    2  A    between atoms: N_5  and  C_6 
ROOT
HETATM    1  C   LIG     1      16.883  35.861  22.607  1.00  0.00     0.036 A 
HETATM    2  C   LIG     1      17.607  36.368  21.513  1.00  0.00     0.055 A 
HETATM    3  C   LIG     1      17.232  36.047  20.202  1.00  0.00     0.058 A 
HETATM    4 CL   LIG     1      18.164  36.707  18.864  1.00  0.00    -0.082 Cl
HETATM    5  C   LIG     1      16.135  35.200  19.977  1.00  0.00     0.055 A 
HETATM    6 CL   LIG     1      15.632  34.771  18.347  1.00  0.00    -0.083 Cl
HETATM    7  C   LIG     1      15.428  34.676  21.063  1.00  0.00     0.028 A 
HETATM    8  C   LIG     1      15.804  34.997  22.370  1.00  0.00     0.031 A 
ENDROOT
BRANCH   1   9
HETATM    9  N   LIG     1      17.263  36.160  23.961  1.00  0.00    -0.327 N 
HETATM   10  C   LIG     1      16.892  37.361  24.656  1.00  0.00     0.221 C 
HETATM   11  O   LIG     1      16.008  38.126  24.188  1.00  0.00    -0.273 OA
HETATM   12  H   LIG     1      17.767  35.421  24.503  1.00  0.00     0.169 HD
BRANCH  10  13
HETATM   13  C   LIG     1      17.490  37.664  25.997  1.00  0.00     0.098 C 
HETATM   14  C   LIG     1      18.557  36.635  26.355  1.00  0.00     0.014 C 
ENDBRANCH  10  13
ENDBRANCH   1   9
TORSDOF 2
ENDMDL
MODEL 7
REMARK VINA RESULT:      -6.0      3.154      4.596
REMARK  2 active torsions:
REMARK  status: ('A' for Active; 'I' for Inactive)
REMARK    1  A    between atoms: C_2  and  C_3 
REMARK       I    between atoms: C_2  and  N_5 
REMARK    2  A    between atoms: N_5  and  C_6 
ROOT
HETATM    1  C   LIG     1      17.589  37.691  21.993  1.00  0.00     0.036 A 
HETATM    2  C   LIG     1      17.656  38.126  23.328  1.00  0.00     0.055 A 
HETATM    3  C   LIG     1      17.437  37.227  24.381  1.00  0.00     0.058 A 
HETATM    4 CL   LIG     1      17.536  37.814  26.036  1.00  0.00    -0.082 Cl
HETATM    5  C   LIG     1      17.135  35.885  24.101  1.00  0.00     0.055 A 
HETATM    6 CL   LIG     1      16.853  34.724  25.393  1.00  0.00    -0.083 Cl
HETATM    7  C   LIG     1      17.044  35.455  22.774  1.00  0.00     0.028 A 
HETATM    8  C   LIG     1      17.262  36.353  21.726  1.00  0.00     0.031 A 
ENDROOT
BRANCH   1   9
HETATM    9  N   LIG     1      17.788  38.600  20.897  1.00  0.00    -0.327 N 
HETATM   10  C   LIG     1      18.821  38.458  19.910  1.00  0.00     0.221 C 
HETATM   11  O   LIG     1      19.478  37.387  19.817  1.00  0.00    -0.273 OA
HETATM   12  H   LIG     1      17.086  39.362  20.759  1.00  0.00     0.169 HD
BRANCH  10  13
HETATM   13  C   LIG     1      19.063  39.555  18.917  1.00  0.00     0.098 C 
HETATM   14  C   LIG     1      18.744  39.081  17.503  1.00  0.00     0.014 C 
ENDBRANCH  10  13
ENDBRANCH   1   9
TORSDOF 2
ENDMDL
MODEL 8
REMARK VINA RESULT:      -5.9     10.018     11.423
REMARK  2 active torsions:
REMARK  status: ('A' for Active; 'I' for Inactive)
REMARK    1  A    between atoms: C_2  and  C_3 
REMARK       I    between atoms: C_2  and  N_5 
REMARK    2  A    between atoms: N_5  and  C_6 
ROOT
HETATM    1  C   LIG     1      19.299  33.818  11.756  1.00  0.00     0.036 A 
HETATM    2  C   LIG     1      20.398  34.072  12.595  1.00  0.00     0.055 A 
HETATM    3  C   LIG     1      21.449  34.891  12.161  1.00  0.00     0.058 A 
HETATM    4 CL   LIG     1      22.803  35.186  13.245  1.00  0.00    -0.082 Cl
HETATM    5  C   LIG     1      21.411  35.453  10.874  1.00  0.00     0.055 A 
HETATM    6 CL   LIG     1      22.709  36.486  10.291  1.00  0.00    -0.083 Cl
HETATM    7  C   LIG     1      20.330  35.183  10.030  1.00  0.00     0.028 A 
HETATM    8  C   LIG     1      19.284  34.364  10.465  1.00  0.00     0.031 A 
ENDROOT
BRANCH   1   9
HETATM    9  N   LIG     1      18.220  32.962  12.172  1.00  0.00    -0.327 N 
HETATM   10  C   LIG     1      17.267  33.304  13.190  1.00  0.00     0.221 C 
HETATM   11  O   LIG     1      17.184  34.484  13.622  1.00  0.00    -0.273 OA
HETATM   12  H   LIG     1      18.068  32.074  11.642  1.00  0.00     0.169 HD
BRANCH  10  13
HETATM   13  C   LIG     1      16.296  32.273  13.681  1.00  0.00     0.098 C 
HETATM   14  C   LIG     1      16.304  32.209  15.205  1.00  0.00     0.014 C 
ENDBRANCH  10  13
ENDBRANCH   1   9
TORSDOF 2
ENDMDL
MODEL 9
REMARK VINA RESULT:      -5.9      1.923      2.413
REMARK  2 active torsions:
REMARK  status: ('A' for Active; 'I' for Inactive)
REMARK    1  A    between atoms: C_2  and  C_3 
REMARK       I    between atoms: C_2  and  N_5 
REMARK    2  A    between atoms: N_5  and  C_6 
ROOT
HETATM    1  C   LIG     1      16.849  35.424  21.197  1.00  0.00     0.036 A 
HETATM    2  C   LIG     1      16.567  36.022  22.438  1.00  0.00     0.055 A 
HETATM    3  C   LIG     1      17.034  37.310  22.729  1.00  0.00     0.058 A 
HETATM    4 CL   LIG     1      16.654  38.022  24.292  1.00  0.00    -0.082 Cl
HETATM    5  C   LIG     1      17.803  38.005  21.781  1.00  0.00     0.055 A 
HETATM    6 CL   LIG     1      18.410  39.623  22.107  1.00  0.00    -0.083 Cl
HETATM    7  C   LIG     1      18.105  37.403  20.556  1.00  0.00     0.028 A 
HETATM    8  C   LIG     1      17.638  36.118  20.269  1.00  0.00     0.031 A 
ENDROOT
BRANCH   1   9
HETATM    9  N   LIG     1      16.398  34.094  20.886  1.00  0.00    -0.327 N 
HETATM   10  C   LIG     1      15.659  33.750  19.704  1.00  0.00     0.221 C 
HETATM   11  O   LIG     1      15.561  34.565  18.748  1.00  0.00    -0.273 OA
HETATM   12  H   LIG     1      16.700  33.315  21.514  1.00  0.00     0.169 HD
BRANCH  10  13
HETATM   13  C   LIG     1      15.075  32.377  19.560  1.00  0.00     0.098 C 
HETATM   14  C   LIG     1      14.579  32.150  18.136  1.00  0.00     0.014 C 
ENDBRANCH  10  13
ENDBRANCH   1   9
TORSDOF 2
ENDMDL
MODEL 10
REMARK VINA RESULT:      -5.8      7.991      9.782
REMARK  2 active torsions:
REMARK  status: ('A' for Active; 'I' for Inactive)
REMARK    1  A    between atoms: C_2  and  C_3 
REMARK       I    between atoms: C_2  and  N_5 
REMARK    2  A    between atoms: N_5  and  C_6 
ROOT
HETATM    1  C   LIG     1      14.504  30.157  14.558  1.00  0.00     0.036 A 
HETATM    2  C   LIG     1      15.560  31.062  14.346  1.00  0.00     0.055 A 
HETATM    3  C   LIG     1      15.761  32.137  15.220  1.00  0.00     0.058 A 
HETATM    4 CL   LIG     1      17.097  33.242  14.919  1.00  0.00    -0.082 Cl
HETATM    5  C   LIG     1      14.895  32.323  16.310  1.00  0.00     0.055 A 
HETATM    6 CL   LIG     1      15.113  33.660  17.432  1.00  0.00    -0.083 Cl
HETATM    7  C   LIG     1      13.831  31.439  16.510  1.00  0.00     0.028 A 
HETATM    8  C   LIG     1      13.632  30.367  15.635  1.00  0.00     0.031 A 
ENDROOT
BRANCH   1   9
HETATM    9  N   LIG     1      14.265  29.060  13.660  1.00  0.00    -0.327 N 
HETATM   10  C   LIG     1      15.139  27.929  13.519  1.00  0.00     0.221 C 
HETATM   11  O   LIG     1      16.060  27.721  14.353  1.00  0.00    -0.273 OA
HETATM   12  H   LIG     1      13.358  29.040  13.140  1.00  0.00     0.169 HD
BRANCH  10  13
HETATM   13  C   LIG     1      14.900  26.931  12.427  1.00  0.00     0.098 C 
HETATM   14  C   LIG     1      16.059  26.928  11.437  1.00  0.00     0.014 C 
ENDBRANCH  10  13
ENDBRANCH   1   9
TORSDOF 2
ENDMDL
MODEL 11
REMARK VINA RESULT:      -5.7      8.101      9.628
REMARK  2 active torsions:
REMARK  status: ('A' for Active; 'I' for Inactive)
REMARK    1  A    between atoms: C_2  and  C_3 
REMARK       I    between atoms: C_2  and  N_5 
REMARK    2  A    between atoms: N_5  and  C_6 
ROOT
HETATM    1  C   LIG     1      16.595  32.441  15.047  1.00  0.00     0.036 A 
HETATM    2  C   LIG     1      16.029  31.293  14.465  1.00  0.00     0.055 A 
HETATM    3  C   LIG     1      14.800  30.797  14.921  1.00  0.00     0.058 A 
HETATM    4 CL   LIG     1      14.127  29.361  14.160  1.00  0.00    -0.082 Cl
HETATM    5  C   LIG     1      14.134  31.442  15.976  1.00  0.00     0.055 A 
HETATM    6 CL   LIG     1      12.590  30.852  16.577  1.00  0.00    -0.083 Cl
HETATM    7  C   LIG     1      14.706  32.570  16.571  1.00  0.00     0.028 A 
HETATM    8  C   LIG     1      15.932  33.062  16.116  1.00  0.00     0.031 A 
ENDROOT
BRANCH   1   9
HETATM    9  N   LIG     1      17.866  32.955  14.612  1.00  0.00    -0.327 N 
HETATM   10  C   LIG     1      18.049  33.762  13.438  1.00  0.00     0.221 C 
HETATM   11  O   LIG     1      17.058  34.263  12.842  1.00  0.00    -0.273 OA
HETATM   12  H   LIG     1      18.694  32.805  15.232  1.00  0.00     0.169 HD
BRANCH  10  13
HETATM   13  C   LIG     1      19.432  34.092  12.966  1.00  0.00     0.098 C 
HETATM   14  C   LIG     1      19.799  33.253  11.747  1.00  0.00     0.014 C 
ENDBRANCH  10  13
ENDBRANCH   1   9
TORSDOF 2
ENDMDL
MODEL 12
REMARK VINA RESULT:      -5.6      5.894      8.215
REMARK  2 active torsions:
REMARK  status: ('A' for Active; 'I' for Inactive)
REMARK    1  A    between atoms: C_2  and  C_3 
REMARK       I    between atoms: C_2  and  N_5 
REMARK    2  A    between atoms: N_5  and  C_6 
ROOT
HETATM    1  C   LIG     1      14.874  32.283  17.716  1.00  0.00     0.036 A 
HETATM    2  C   LIG     1      13.941  31.414  17.124  1.00  0.00     0.055 A 
HETATM    3  C   LIG     1      14.087  31.016  15.789  1.00  0.00     0.058 A 
HETATM    4 CL   LIG     1      12.898  29.924  15.091  1.00  0.00    -0.082 Cl
HETATM    5  C   LIG     1      15.166  31.499  15.030  1.00  0.00     0.055 A 
HETATM    6 CL   LIG     1      15.385  31.025  13.351  1.00  0.00    -0.083 Cl
HETATM    7  C   LIG     1      16.082  32.382  15.610  1.00  0.00     0.028 A 
HETATM    8  C   LIG     1      15.933  32.778  16.941  1.00  0.00     0.031 A 
ENDROOT
BRANCH   1   9
HETATM    9  N   LIG     1      14.732  32.723  19.078  1.00  0.00    -0.327 N 
HETATM   10  C   LIG     1      15.313  33.928  19.601  1.00  0.00     0.221 C 
HETATM   11  O   LIG     1      15.796  34.796  18.826  1.00  0.00    -0.273 OA
HETATM   12  H   LIG     1      14.096  32.179  19.705  1.00  0.00     0.169 HD
BRANCH  10  13
HETATM   13  C   LIG     1      15.264  34.204  21.073  1.00  0.00     0.098 C 
HETATM   14  C   LIG     1      16.528  34.925  21.528  1.00  0.00     0.014 C 
ENDBRANCH  10  13
ENDBRANCH   1   9
TORSDOF 2
ENDMDL
MODEL 13
REMARK VINA RESULT:      -5.5      7.776      9.572
REMARK  2 active torsions:
REMARK  status: ('A' for Active; 'I' for Inactive)
REMARK    1  A    between atoms: C_2  and  C_3 
REMARK       I    between atoms: C_2  and  N_5 
REMARK    2  A    between atoms: N_5  and  C_6 
ROOT
HETATM    1  C   LIG     1      16.921  32.511  14.308  1.00  0.00     0.036 A 
HETATM    2  C   LIG     1      16.546  32.966  15.584  1.00  0.00     0.055 A 
HETATM    3  C   LIG     1      15.417  32.440  16.224  1.00  0.00     0.058 A 
HETATM    4 CL   LIG     1      14.988  33.036  17.823  1.00  0.00    -0.082 Cl
HETATM    5  C   LIG     1      14.643  31.459  15.581  1.00  0.00     0.055 A 
HETATM    6 CL   LIG     1      13.217  30.773  16.349  1.00  0.00    -0.083 Cl
HETATM    7  C   LIG     1      15.000  31.022  14.303  1.00  0.00     0.028 A 
HETATM    8  C   LIG     1      16.127  31.549  13.666  1.00  0.00     0.031 A 
ENDROOT
BRANCH   1   9
HETATM    9  N   LIG     1      18.063  33.053  13.623  1.00  0.00    -0.327 N 
HETATM   10  C   LIG     1      17.990  34.083  12.625  1.00  0.00     0.221 C 
HETATM   11  O   LIG     1      16.927  34.739  12.456  1.00  0.00    -0.273 OA
HETATM   12  H   LIG     1      19.013  32.741  13.930  1.00  0.00     0.169 HD
BRANCH  10  13
HETATM   13  C   LIG     1      19.211  34.449  11.837  1.00  0.00     0.098 C 
HETATM   14  C   LIG     1      20.475  34.009  12.569  1.00  0.00     0.014 C 
ENDBRANCH  10  13
ENDBRANCH   1   9
TORSDOF 2
ENDMDL
MODEL 14
REMARK VINA RESULT:      -5.1      3.660      5.184
REMARK  2 active torsions:
REMARK  status: ('A' for Active; 'I' for Inactive)
REMARK    1  A    between atoms: C_2  and  C_3 
REMARK       I    between atoms: C_2  and  N_5 
REMARK    2  A    between atoms: N_5  and  C_6 
ROOT
HETATM    1  C   LIG     1      17.472  36.436  22.083  1.00  0.00     0.036 A 
HETATM    2  C   LIG     1      17.828  37.789  22.220  1.00  0.00     0.055 A 
HETATM    3  C   LIG     1      18.264  38.526  21.112  1.00  0.00     0.058 A 
HETATM    4 CL   LIG     1      18.695  40.218  21.329  1.00  0.00    -0.082 Cl
HETATM    5  C   LIG     1      18.359  37.907  19.855  1.00  0.00     0.055 A 
HETATM    6 CL   LIG     1      18.902  38.796  18.437  1.00  0.00    -0.083 Cl
HETATM    7  C   LIG     1      18.029  36.555  19.720  1.00  0.00     0.028 A 
HETATM    8  C   LIG     1      17.595  35.822  20.828  1.00  0.00     0.031 A 
ENDROOT
BRANCH   1   9
HETATM    9  N   LIG     1      17.044  35.654  23.211  1.00  0.00    -0.327 N 
HETATM   10  C   LIG     1      17.371  35.962  24.576  1.00  0.00     0.221 C 
HETATM   11  O   LIG     1      17.866  37.080  24.880  1.00  0.00    -0.273 OA
HETATM   12  H   LIG     1      16.384  34.863  23.037  1.00  0.00     0.169 HD
BRANCH  10  13
HETATM   13  C   LIG     1      17.036  34.987  25.663  1.00  0.00     0.098 C 
HETATM   14  C   LIG     1      18.261  34.700  26.524  1.00  0.00     0.014 C 
ENDBRANCH  10  13
ENDBRANCH   1   9
TORSDOF 2
ENDMDL
MODEL 15
REMARK VINA RESULT:      -5.1      4.361      6.606
REMARK  2 active torsions:
REMARK  status: ('A' for Active; 'I' for Inactive)
REMARK    1  A    between atoms: C_2  and  C_3 
REMARK       I    between atoms: C_2  and  N_5 
REMARK    2  A    between atoms: N_5  and  C_6 
ROOT
HETATM    1  C   LIG     1      15.654  33.665  20.142  1.00  0.00     0.036 A 
HETATM    2  C   LIG     1      15.716  34.017  18.782  1.00  0.00     0.055 A 
HETATM    3  C   LIG     1      15.160  33.181  17.805  1.00  0.00     0.058 A 
HETATM    4 CL   LIG     1      15.256  33.663  16.116  1.00  0.00    -0.082 Cl
HETATM    5  C   LIG     1      14.548  31.975  18.185  1.00  0.00     0.055 A 
HETATM    6 CL   LIG     1      13.838  30.896  16.990  1.00  0.00    -0.083 Cl
HETATM    7  C   LIG     1      14.506  31.612  19.534  1.00  0.00     0.028 A 
HETATM    8  C   LIG     1      15.062  32.447  20.506  1.00  0.00     0.031 A 
ENDROOT
BRANCH   1   9
HETATM    9  N   LIG     1      16.238  34.497  21.160  1.00  0.00    -0.327 N 
HETATM   10  C   LIG     1      15.670  35.737  21.611  1.00  0.00     0.221 C 
HETATM   11  O   LIG     1      14.492  36.055  21.298  1.00  0.00    -0.273 OA
HETATM   12  H   LIG     1      17.081  34.137  21.663  1.00  0.00     0.169 HD
BRANCH  10  13
HETATM   13  C   LIG     1      16.447  36.621  22.539  1.00  0.00     0.098 C 
HETATM   14  C   LIG     1      17.379  37.537  21.755  1.00  0.00     0.014 C 
ENDBRANCH  10  13
ENDBRANCH   1   9
TORSDOF 2
ENDMDL
MODEL 16
REMARK VINA RESULT:      -5.0      3.873      6.151
REMARK  2 active torsions:
REMARK  status: ('A' for Active; 'I' for Inactive)
REMARK    1  A    between atoms: C_2  and  C_3 
REMARK       I    between atoms: C_2  and  N_5 
REMARK    2  A    between atoms: N_5  and  C_6 
ROOT
HETATM    1  C   LIG     1      15.907  34.460  19.608  1.00  0.00     0.036 A 
HETATM    2  C   LIG     1      15.652  33.203  20.183  1.00  0.00     0.055 A 
HETATM    3  C   LIG     1      15.060  32.182  19.429  1.00  0.00     0.058 A 
HETATM    4 CL   LIG     1      14.764  30.623  20.188  1.00  0.00    -0.082 Cl
HETATM    5  C   LIG     1      14.704  32.419  18.091  1.00  0.00     0.055 A 
HETATM    6 CL   LIG     1      13.958  31.165  17.108  1.00  0.00    -0.083 Cl
HETATM    7  C   LIG     1      14.935  33.676  17.523  1.00  0.00     0.028 A 
HETATM    8  C   LIG     1      15.525  34.692  18.279  1.00  0.00     0.031 A 
ENDROOT
BRANCH   1   9
HETATM    9  N   LIG     1      16.493  35.530  20.370  1.00  0.00    -0.327 N 
HETATM   10  C   LIG     1      15.869  36.143  21.509  1.00  0.00     0.221 C 
HETATM   11  O   LIG     1      14.860  35.616  22.050  1.00  0.00    -0.273 OA
HETATM   12  H   LIG     1      17.469  35.821  20.136  1.00  0.00     0.169 HD
BRANCH  10  13
HETATM   13  C   LIG     1      16.473  37.370  22.121  1.00  0.00     0.098 C 
HETATM   14  C   LIG     1      17.765  37.749  21.406  1.00  0.00     0.014 C 
ENDBRANCH  10  13
ENDBRANCH   1   9
TORSDOF 2
ENDMDL
MODEL 17
REMARK VINA RESULT:      -5.0      8.286     10.071
REMARK  2 active torsions:
REMARK  status: ('A' for Active; 'I' for Inactive)
REMARK    1  A    between atoms: C_2  and  C_3 
REMARK       I    between atoms: C_2  and  N_5 
REMARK    2  A    between atoms: N_5  and  C_6 
ROOT
HETATM    1  C   LIG     1      17.210  33.237  13.333  1.00  0.00     0.036 A 
HETATM    2  C   LIG     1      16.344  32.136  13.456  1.00  0.00     0.055 A 
HETATM    3  C   LIG     1      15.707  31.865  14.673  1.00  0.00     0.058 A 
HETATM    4 CL   LIG     1      14.628  30.479  14.780  1.00  0.00    -0.082 Cl
HETATM    5  C   LIG     1      15.944  32.690  15.785  1.00  0.00     0.055 A 
HETATM    6 CL   LIG     1      15.164  32.384  17.332  1.00  0.00    -0.083 Cl
HETATM    7  C   LIG     1      16.823  33.771  15.672  1.00  0.00     0.028 A 
HETATM    8  C   LIG     1      17.458  34.039  14.457  1.00  0.00     0.031 A 
ENDROOT
BRANCH   1   9
HETATM    9  N   LIG     1      17.893  33.522  12.100  1.00  0.00    -0.327 N 
HETATM   10  C   LIG     1      19.298  33.805  12.003  1.00  0.00     0.221 C 
HETATM   11  O   LIG     1      20.065  33.590  12.980  1.00  0.00    -0.273 OA
HETATM   12  H   LIG     1      17.353  33.433  11.209  1.00  0.00     0.169 HD
BRANCH  10  13
HETATM   13  C   LIG     1      19.879  34.270  10.702  1.00  0.00     0.098 C 
HETATM   14  C   LIG     1      21.259  34.880  10.918  1.00  0.00     0.014 C 
ENDBRANCH  10  13
ENDBRANCH   1   9
TORSDOF 2
ENDMDL
MODEL 18
REMARK VINA RESULT:      -4.7      5.316      6.725
REMARK  2 active torsions:
REMARK  status: ('A' for Active; 'I' for Inactive)
REMARK    1  A    between atoms: C_2  and  C_3 
REMARK       I    between atoms: C_2  and  N_5 
REMARK    2  A    between atoms: N_5  and  C_6 
ROOT
HETATM    1  C   LIG     1      14.962  32.178  16.593  1.00  0.00     0.036 A 
HETATM    2  C   LIG     1      14.781  31.749  17.920  1.00  0.00     0.055 A 
HETATM    3  C   LIG     1      14.940  32.644  18.985  1.00  0.00     0.058 A 
HETATM    4 CL   LIG     1      14.700  32.065  20.629  1.00  0.00    -0.082 Cl
HETATM    5  C   LIG     1      15.297  33.978  18.728  1.00  0.00     0.055 A 
HETATM    6 CL   LIG     1      15.507  35.135  20.037  1.00  0.00    -0.083 Cl
HETATM    7  C   LIG     1      15.500  34.401  17.412  1.00  0.00     0.028 A 
HETATM    8  C   LIG     1      15.342  33.506  16.351  1.00  0.00     0.031 A 
ENDROOT
BRANCH   1   9
HETATM    9  N   LIG     1      14.826  31.270  15.486  1.00  0.00    -0.327 N 
HETATM   10  C   LIG     1      13.683  30.429  15.270  1.00  0.00     0.221 C 
HETATM   11  O   LIG     1      12.620  30.609  15.922  1.00  0.00    -0.273 OA
HETATM   12  H   LIG     1      15.565  31.285  14.746  1.00  0.00     0.169 HD
BRANCH  10  13
HETATM   13  C   LIG     1      13.715  29.386  14.194  1.00  0.00     0.098 C 
HETATM   14  C   LIG     1      15.152  29.009  13.852  1.00  0.00     0.014 C 
ENDBRANCH  10  13
ENDBRANCH   1   9
TORSDOF 2
ENDMDL
