REMARK  5 active torsions:
REMARK  status: ('A' for Active; 'I' for Inactive)
REMARK    1  A    between atoms: CG_2  and  CB_6 
REMARK    2  A    between atoms: CB_6  and  CA_7 
REMARK    3  A    between atoms: CA_7  and  C_9 
REMARK    4  A    between atoms: CA_7  and  N_8 
REMARK    5  A    between atoms: C_9  and  O_10 
ROOT
ATOM      1  CA  HIS A   1      -1.354  -0.256  -0.660  1.00  0.00     0.320 C 
ENDROOT
BRANCH   1   2
ATOM      2  CB  HIS A   1      -0.281  -1.088   0.080  1.00  0.00     0.107 C 
BRANCH   2   3
ATOM      3  CG  HIS A   1       0.998  -0.322   0.254  1.00  0.00     0.053 A 
ATOM      4  ND1 HIS A   1       1.415   0.197   1.426  1.00  0.00    -0.247 NA
ATOM      5  CE1 HIS A   1       2.578   0.807   1.114  1.00  0.00     0.207 A 
ATOM      6  NE2 HIS A   1       2.895   0.693  -0.190  1.00  0.00    -0.359 N 
ATOM      7  CD2 HIS A   1       1.900  -0.018  -0.741  1.00  0.00     0.116 A 
ATOM      8  HE2 HIS A   1       3.736   1.080  -0.671  1.00  0.00     0.166 HD
ENDBRANCH   2   3
ENDBRANCH   1   2
BRANCH   1   9
ATOM      9  C   HIS A   1      -1.842   0.924   0.142  1.00  0.00     0.174 C 
ATOM     10  OXT HIS A   1      -2.589   1.777  -0.407  1.00  0.00    -0.648 OA
BRANCH   9  11
ATOM     11  O   HIS A   1      -1.494   1.078   1.482  1.00  0.00    -0.775 OA
ATOM     12  H   HIS A   1      -1.827   1.870   2.018  1.00  0.00     0.167 HD
ENDBRANCH   9  11
ENDBRANCH   1   9
BRANCH   1  13
ATOM     13  N   HIS A   1      -2.499  -1.094  -1.018  1.00  0.00     0.093 N 
ATOM     14  H1  HIS A   1      -2.860  -1.572  -0.160  1.00  0.00     0.314 HD
ATOM     15  H2  HIS A   1      -2.179  -1.838  -1.681  1.00  0.00     0.314 HD
ENDBRANCH   1  13
TORSDOF 5
