MODEL 1
REMARK VINA RESULT:      -5.9      0.000      0.000
REMARK  5 active torsions:
REMARK  status: ('A' for Active; 'I' for Inactive)
REMARK    1  A    between atoms: CG_2  and  CB_6 
REMARK    2  A    between atoms: CB_6  and  CA_7 
REMARK    3  A    between atoms: CA_7  and  C_9 
REMARK    4  A    between atoms: CA_7  and  N_8 
REMARK    5  A    between atoms: C_9  and  O_10 
ROOT
ATOM      1  CA  HIS A   1      16.650  38.211  23.207  1.00  0.00     0.320 C 
ENDROOT
BRANCH   1   2
ATOM      2  CB  HIS A   1      17.222  37.298  22.097  1.00  0.00     0.107 C 
BRANCH   2   3
ATOM      3  CG  HIS A   1      18.135  38.049  21.172  1.00  0.00     0.053 A 
ATOM      4  ND1 HIS A   1      18.678  37.524  20.056  1.00  0.00    -0.247 NA
ATOM      5  CE1 HIS A   1      19.433  38.528  19.561  1.00  0.00     0.207 A 
ATOM      6  NE2 HIS A   1      19.384  39.641  20.318  1.00  0.00    -0.359 N 
ATOM      7  CD2 HIS A   1      18.567  39.345  21.340  1.00  0.00     0.116 A 
ATOM      8  HE2 HIS A   1      19.881  40.542  20.147  1.00  0.00     0.166 HD
ENDBRANCH   2   3
ENDBRANCH   1   2
BRANCH   1   9
ATOM      9  C   HIS A   1      17.046  37.772  24.594  1.00  0.00     0.174 C 
ATOM     10  OXT HIS A   1      17.217  36.546  24.828  1.00  0.00    -0.648 OA
BRANCH   9  11
ATOM     11  O   HIS A   1      17.242  38.699  25.615  1.00  0.00    -0.775 OA
ATOM     12  H   HIS A   1      17.370  38.398  26.573  1.00  0.00     0.167 HD
ENDBRANCH   9  11
ENDBRANCH   1   9
BRANCH   1  13
ATOM     13  N   HIS A   1      15.190  38.267  23.125  1.00  0.00     0.093 N 
ATOM     14  H1  HIS A   1      14.847  37.499  22.502  1.00  0.00     0.314 HD
ATOM     15  H2  HIS A   1      14.911  39.176  22.686  1.00  0.00     0.314 HD
ENDBRANCH   1  13
TORSDOF 5
ENDMDL
MODEL 2
REMARK VINA RESULT:      -5.7      3.700      4.945
REMARK  5 active torsions:
REMARK  status: ('A' for Active; 'I' for Inactive)
REMARK    1  A    between atoms: CG_2  and  CB_6 
REMARK    2  A    between atoms: CB_6  and  CA_7 
REMARK    3  A    between atoms: CA_7  and  C_9 
REMARK    4  A    between atoms: CA_7  and  N_8 
REMARK    5  A    between atoms: C_9  and  O_10 
ROOT
ATOM      1  CA  HIS A   1      16.359  35.754  21.881  1.00  0.00     0.320 C 
ENDROOT
BRANCH   1   2
ATOM      2  CB  HIS A   1      17.015  35.145  23.142  1.00  0.00     0.107 C 
BRANCH   2   3
ATOM      3  CG  HIS A   1      17.175  36.162  24.235  1.00  0.00     0.053 A 
ATOM      4  ND1 HIS A   1      17.013  37.489  24.062  1.00  0.00    -0.247 NA
ATOM      5  CE1 HIS A   1      17.272  38.008  25.281  1.00  0.00     0.207 A 
ATOM      6  NE2 HIS A   1      17.589  37.069  26.193  1.00  0.00    -0.359 N 
ATOM      7  CD2 HIS A   1      17.532  35.899  25.538  1.00  0.00     0.116 A 
ATOM      8  HE2 HIS A   1      17.832  37.220  27.196  1.00  0.00     0.166 HD
ENDBRANCH   2   3
ENDBRANCH   1   2
BRANCH   1   9
ATOM      9  C   HIS A   1      15.523  34.760  21.114  1.00  0.00     0.174 C 
ATOM     10  OXT HIS A   1      15.995  34.230  20.073  1.00  0.00    -0.648 OA
BRANCH   9  11
ATOM     11  O   HIS A   1      14.246  34.408  21.545  1.00  0.00    -0.775 OA
ATOM     12  H   HIS A   1      13.446  34.991  21.334  1.00  0.00     0.167 HD
ENDBRANCH   9  11
ENDBRANCH   1   9
BRANCH   1  13
ATOM     13  N   HIS A   1      17.376  36.309  20.989  1.00  0.00     0.093 N 
ATOM     14  H1  HIS A   1      17.274  37.350  20.953  1.00  0.00     0.314 HD
ATOM     15  H2  HIS A   1      17.213  35.944  20.021  1.00  0.00     0.314 HD
ENDBRANCH   1  13
TORSDOF 5
ENDMDL
MODEL 3
REMARK VINA RESULT:      -5.4      3.741      4.645
REMARK  5 active torsions:
REMARK  status: ('A' for Active; 'I' for Inactive)
REMARK    1  A    between atoms: CG_2  and  CB_6 
REMARK    2  A    between atoms: CB_6  and  CA_7 
REMARK    3  A    between atoms: CA_7  and  C_9 
REMARK    4  A    between atoms: CA_7  and  N_8 
REMARK    5  A    between atoms: C_9  and  O_10 
ROOT
ATOM      1  CA  HIS A   1      15.489  34.700  21.497  1.00  0.00     0.320 C 
ENDROOT
BRANCH   1   2
ATOM      2  CB  HIS A   1      16.866  35.156  22.034  1.00  0.00     0.107 C 
BRANCH   2   3
ATOM      3  CG  HIS A   1      16.812  36.545  22.601  1.00  0.00     0.053 A 
ATOM      4  ND1 HIS A   1      16.887  37.668  21.858  1.00  0.00    -0.247 NA
ATOM      5  CE1 HIS A   1      16.822  38.662  22.769  1.00  0.00     0.207 A 
ATOM      6  NE2 HIS A   1      16.715  38.209  24.032  1.00  0.00    -0.359 N 
ATOM      7  CD2 HIS A   1      16.710  36.871  23.935  1.00  0.00     0.116 A 
ATOM      8  HE2 HIS A   1      16.653  38.778  24.904  1.00  0.00     0.166 HD
ENDBRANCH   2   3
ENDBRANCH   1   2
BRANCH   1   9
ATOM      9  C   HIS A   1      15.578  34.003  20.163  1.00  0.00     0.174 C 
ATOM     10  OXT HIS A   1      15.654  32.747  20.127  1.00  0.00    -0.648 OA
BRANCH   9  11
ATOM     11  O   HIS A   1      15.561  34.724  18.971  1.00  0.00    -0.775 OA
ATOM     12  H   HIS A   1      14.691  34.910  18.488  1.00  0.00     0.167 HD
ENDBRANCH   9  11
ENDBRANCH   1   9
BRANCH   1  13
ATOM     13  N   HIS A   1      14.579  35.840  21.379  1.00  0.00     0.093 N 
ATOM     14  H1  HIS A   1      15.136  36.716  21.247  1.00  0.00     0.314 HD
ATOM     15  H2  HIS A   1      14.044  35.939  22.273  1.00  0.00     0.314 HD
ENDBRANCH   1  13
TORSDOF 5
ENDMDL
MODEL 4
REMARK VINA RESULT:      -5.3      3.713      4.589
REMARK  5 active torsions:
REMARK  status: ('A' for Active; 'I' for Inactive)
REMARK    1  A    between atoms: CG_2  and  CB_6 
REMARK    2  A    between atoms: CB_6  and  CA_7 
REMARK    3  A    between atoms: CA_7  and  C_9 
REMARK    4  A    between atoms: CA_7  and  N_8 
REMARK    5  A    between atoms: C_9  and  O_10 
ROOT
ATOM      1  CA  HIS A   1      15.879  36.002  21.843  1.00  0.00     0.320 C 
ENDROOT
BRANCH   1   2
ATOM      2  CB  HIS A   1      16.083  37.367  22.541  1.00  0.00     0.107 C 
BRANCH   2   3
ATOM      3  CG  HIS A   1      16.822  37.224  23.840  1.00  0.00     0.053 A 
ATOM      4  ND1 HIS A   1      17.178  36.043  24.381  1.00  0.00    -0.247 NA
ATOM      5  CE1 HIS A   1      17.787  36.386  25.536  1.00  0.00     0.207 A 
ATOM      6  NE2 HIS A   1      17.821  37.718  25.733  1.00  0.00    -0.359 N 
ATOM      7  CD2 HIS A   1      17.210  38.255  24.666  1.00  0.00     0.116 A 
ATOM      8  HE2 HIS A   1      18.231  38.225  26.547  1.00  0.00     0.166 HD
ENDBRANCH   2   3
ENDBRANCH   1   2
BRANCH   1   9
ATOM      9  C   HIS A   1      16.769  35.815  20.640  1.00  0.00     0.174 C 
ATOM     10  OXT HIS A   1      17.941  36.277  20.662  1.00  0.00    -0.648 OA
BRANCH   9  11
ATOM     11  O   HIS A   1      16.324  35.128  19.514  1.00  0.00    -0.775 OA
ATOM     12  H   HIS A   1      15.416  35.324  19.110  1.00  0.00     0.167 HD
ENDBRANCH   9  11
ENDBRANCH   1   9
BRANCH   1  13
ATOM     13  N   HIS A   1      14.484  35.838  21.431  1.00  0.00     0.093 N 
ATOM     14  H1  HIS A   1      14.275  36.497  20.645  1.00  0.00     0.314 HD
ATOM     15  H2  HIS A   1      13.862  36.098  22.232  1.00  0.00     0.314 HD
ENDBRANCH   1  13
TORSDOF 5
ENDMDL
MODEL 5
REMARK VINA RESULT:      -5.3      2.522      3.082
REMARK  5 active torsions:
REMARK  status: ('A' for Active; 'I' for Inactive)
REMARK    1  A    between atoms: CG_2  and  CB_6 
REMARK    2  A    between atoms: CB_6  and  CA_7 
REMARK    3  A    between atoms: CA_7  and  C_9 
REMARK    4  A    between atoms: CA_7  and  N_8 
REMARK    5  A    between atoms: C_9  and  O_10 
ROOT
ATOM      1  CA  HIS A   1      17.124  37.370  23.798  1.00  0.00     0.320 C 
ENDROOT
BRANCH   1   2
ATOM      2  CB  HIS A   1      17.050  35.846  23.545  1.00  0.00     0.107 C 
BRANCH   2   3
ATOM      3  CG  HIS A   1      16.695  35.534  22.120  1.00  0.00     0.053 A 
ATOM      4  ND1 HIS A   1      15.709  34.691  21.754  1.00  0.00    -0.247 NA
ATOM      5  CE1 HIS A   1      15.763  34.697  20.405  1.00  0.00     0.207 A 
ATOM      6  NE2 HIS A   1      16.734  35.496  19.924  1.00  0.00    -0.359 N 
ATOM      7  CD2 HIS A   1      17.329  36.028  21.002  1.00  0.00     0.116 A 
ATOM      8  HE2 HIS A   1      16.974  35.664  18.923  1.00  0.00     0.166 HD
ENDBRANCH   2   3
ENDBRANCH   1   2
BRANCH   1   9
ATOM      9  C   HIS A   1      17.641  37.715  25.172  1.00  0.00     0.174 C 
ATOM     10  OXT HIS A   1      18.488  36.960  25.720  1.00  0.00    -0.648 OA
BRANCH   9  11
ATOM     11  O   HIS A   1      17.211  38.860  25.837  1.00  0.00    -0.775 OA
ATOM     12  H   HIS A   1      16.244  39.156  25.792  1.00  0.00     0.167 HD
ENDBRANCH   9  11
ENDBRANCH   1   9
BRANCH   1  13
ATOM     13  N   HIS A   1      15.809  37.986  23.617  1.00  0.00     0.093 N 
ATOM     14  H1  HIS A   1      15.332  37.548  22.795  1.00  0.00     0.314 HD
ATOM     15  H2  HIS A   1      15.939  39.002  23.400  1.00  0.00     0.314 HD
ENDBRANCH   1  13
TORSDOF 5
ENDMDL
MODEL 6
REMARK VINA RESULT:      -5.3      4.571      5.631
REMARK  5 active torsions:
REMARK  status: ('A' for Active; 'I' for Inactive)
REMARK    1  A    between atoms: CG_2  and  CB_6 
REMARK    2  A    between atoms: CB_6  and  CA_7 
REMARK    3  A    between atoms: CA_7  and  C_9 
REMARK    4  A    between atoms: CA_7  and  N_8 
REMARK    5  A    between atoms: C_9  and  O_10 
ROOT
ATOM      1  CA  HIS A   1      15.436  33.569  20.509  1.00  0.00     0.320 C 
ENDROOT
BRANCH   1   2
ATOM      2  CB  HIS A   1      15.780  34.950  19.903  1.00  0.00     0.107 C 
BRANCH   2   3
ATOM      3  CG  HIS A   1      16.178  35.939  20.959  1.00  0.00     0.053 A 
ATOM      4  ND1 HIS A   1      15.342  36.417  21.902  1.00  0.00    -0.247 NA
ATOM      5  CE1 HIS A   1      16.106  37.278  22.607  1.00  0.00     0.207 A 
ATOM      6  NE2 HIS A   1      17.368  37.357  22.143  1.00  0.00    -0.359 N 
ATOM      7  CD2 HIS A   1      17.421  36.515  21.100  1.00  0.00     0.116 A 
ATOM      8  HE2 HIS A   1      18.140  37.952  22.515  1.00  0.00     0.166 HD
ENDBRANCH   2   3
ENDBRANCH   1   2
BRANCH   1   9
ATOM      9  C   HIS A   1      15.122  32.529  19.464  1.00  0.00     0.174 C 
ATOM     10  OXT HIS A   1      15.671  32.605  18.332  1.00  0.00    -0.648 OA
BRANCH   9  11
ATOM     11  O   HIS A   1      14.249  31.477  19.733  1.00  0.00    -0.775 OA
ATOM     12  H   HIS A   1      14.274  30.995  20.624  1.00  0.00     0.167 HD
ENDBRANCH   9  11
ENDBRANCH   1   9
BRANCH   1  13
ATOM     13  N   HIS A   1      14.303  33.678  21.428  1.00  0.00     0.093 N 
ATOM     14  H1  HIS A   1      13.589  34.327  21.023  1.00  0.00     0.314 HD
ATOM     15  H2  HIS A   1      14.636  34.098  22.327  1.00  0.00     0.314 HD
ENDBRANCH   1  13
TORSDOF 5
ENDMDL
MODEL 7
REMARK VINA RESULT:      -5.2      3.696      5.118
REMARK  5 active torsions:
REMARK  status: ('A' for Active; 'I' for Inactive)
REMARK    1  A    between atoms: CG_2  and  CB_6 
REMARK    2  A    between atoms: CB_6  and  CA_7 
REMARK    3  A    between atoms: CA_7  and  C_9 
REMARK    4  A    between atoms: CA_7  and  N_8 
REMARK    5  A    between atoms: C_9  and  O_10 
ROOT
ATOM      1  CA  HIS A   1      18.774  38.728  19.963  1.00  0.00     0.320 C 
ENDROOT
BRANCH   1   2
ATOM      2  CB  HIS A   1      18.696  37.184  20.016  1.00  0.00     0.107 C 
BRANCH   2   3
ATOM      3  CG  HIS A   1      17.582  36.711  20.903  1.00  0.00     0.053 A 
ATOM      4  ND1 HIS A   1      17.253  37.288  22.076  1.00  0.00    -0.247 NA
ATOM      5  CE1 HIS A   1      16.231  36.534  22.532  1.00  0.00     0.207 A 
ATOM      6  NE2 HIS A   1      15.918  35.520  21.702  1.00  0.00    -0.359 N 
ATOM      7  CD2 HIS A   1      16.769  35.624  20.671  1.00  0.00     0.116 A 
ATOM      8  HE2 HIS A   1      15.173  34.802  21.836  1.00  0.00     0.166 HD
ENDBRANCH   2   3
ENDBRANCH   1   2
BRANCH   1   9
ATOM      9  C   HIS A   1      19.563  39.239  18.784  1.00  0.00     0.174 C 
ATOM     10  OXT HIS A   1      18.965  39.490  17.703  1.00  0.00    -0.648 OA
BRANCH   9  11
ATOM     11  O   HIS A   1      20.936  39.452  18.874  1.00  0.00    -0.775 OA
ATOM     12  H   HIS A   1      21.309  40.380  19.035  1.00  0.00     0.167 HD
ENDBRANCH   9  11
ENDBRANCH   1   9
BRANCH   1  13
ATOM     13  N   HIS A   1      19.363  39.256  21.194  1.00  0.00     0.093 N 
ATOM     14  H1  HIS A   1      20.382  39.436  21.041  1.00  0.00     0.314 HD
ATOM     15  H2  HIS A   1      19.281  38.532  21.945  1.00  0.00     0.314 HD
ENDBRANCH   1  13
TORSDOF 5
ENDMDL
MODEL 8
REMARK VINA RESULT:      -5.2      9.186     10.060
REMARK  5 active torsions:
REMARK  status: ('A' for Active; 'I' for Inactive)
REMARK    1  A    between atoms: CG_2  and  CB_6 
REMARK    2  A    between atoms: CB_6  and  CA_7 
REMARK    3  A    between atoms: CA_7  and  C_9 
REMARK    4  A    between atoms: CA_7  and  N_8 
REMARK    5  A    between atoms: C_9  and  O_10 
ROOT
ATOM      1  CA  HIS A   1      14.565  32.853  16.683  1.00  0.00     0.320 C 
ENDROOT
BRANCH   1   2
ATOM      2  CB  HIS A   1      15.438  31.907  15.826  1.00  0.00     0.107 C 
BRANCH   2   3
ATOM      3  CG  HIS A   1      14.614  30.858  15.137  1.00  0.00     0.053 A 
ATOM      4  ND1 HIS A   1      13.336  30.571  15.455  1.00  0.00    -0.247 NA
ATOM      5  CE1 HIS A   1      13.010  29.570  14.610  1.00  0.00     0.207 A 
ATOM      6  NE2 HIS A   1      14.023  29.225  13.792  1.00  0.00    -0.359 N 
ATOM      7  CD2 HIS A   1      15.041  30.033  14.120  1.00  0.00     0.116 A 
ATOM      8  HE2 HIS A   1      14.017  28.481  13.060  1.00  0.00     0.166 HD
ENDBRANCH   2   3
ENDBRANCH   1   2
BRANCH   1   9
ATOM      9  C   HIS A   1      15.287  34.112  17.092  1.00  0.00     0.174 C 
ATOM     10  OXT HIS A   1      15.942  34.755  16.230  1.00  0.00    -0.648 OA
BRANCH   9  11
ATOM     11  O   HIS A   1      15.228  34.583  18.402  1.00  0.00    -0.775 OA
ATOM     12  H   HIS A   1      16.050  34.963  18.855  1.00  0.00     0.167 HD
ENDBRANCH   9  11
ENDBRANCH   1   9
BRANCH   1  13
ATOM     13  N   HIS A   1      14.088  32.166  17.884  1.00  0.00     0.093 N 
ATOM     14  H1  HIS A   1      14.746  31.389  18.123  1.00  0.00     0.314 HD
ATOM     15  H2  HIS A   1      13.155  31.737  17.680  1.00  0.00     0.314 HD
ENDBRANCH   1  13
TORSDOF 5
ENDMDL
MODEL 9
REMARK VINA RESULT:      -5.2      8.675      9.559
REMARK  5 active torsions:
REMARK  status: ('A' for Active; 'I' for Inactive)
REMARK    1  A    between atoms: CG_2  and  CB_6 
REMARK    2  A    between atoms: CB_6  and  CA_7 
REMARK    3  A    between atoms: CA_7  and  C_9 
REMARK    4  A    between atoms: CA_7  and  N_8 
REMARK    5  A    between atoms: C_9  and  O_10 
ROOT
ATOM      1  CA  HIS A   1      14.903  32.398  17.456  1.00  0.00     0.320 C 
ENDROOT
BRANCH   1   2
ATOM      2  CB  HIS A   1      13.875  31.429  16.827  1.00  0.00     0.107 C 
BRANCH   2   3
ATOM      3  CG  HIS A   1      14.329  30.924  15.489  1.00  0.00     0.053 A 
ATOM      4  ND1 HIS A   1      15.336  31.470  14.777  1.00  0.00    -0.247 NA
ATOM      5  CE1 HIS A   1      15.379  30.723  13.653  1.00  0.00     0.207 A 
ATOM      6  NE2 HIS A   1      14.448  29.749  13.637  1.00  0.00    -0.359 N 
ATOM      7  CD2 HIS A   1      13.780  29.871  14.793  1.00  0.00     0.116 A 
ATOM      8  HE2 HIS A   1      14.281  29.049  12.881  1.00  0.00     0.166 HD
ENDBRANCH   2   3
ENDBRANCH   1   2
BRANCH   1   9
ATOM      9  C   HIS A   1      15.015  32.250  18.953  1.00  0.00     0.174 C 
ATOM     10  OXT HIS A   1      14.472  31.263  19.517  1.00  0.00    -0.648 OA
BRANCH   9  11
ATOM     11  O   HIS A   1      15.720  33.175  19.718  1.00  0.00    -0.775 OA
ATOM     12  H   HIS A   1      16.098  32.922  20.623  1.00  0.00     0.167 HD
ENDBRANCH   9  11
ENDBRANCH   1   9
BRANCH   1  13
ATOM     13  N   HIS A   1      14.563  33.786  17.140  1.00  0.00     0.093 N 
ATOM     14  H1  HIS A   1      14.557  34.350  18.021  1.00  0.00     0.314 HD
ATOM     15  H2  HIS A   1      13.595  33.814  16.742  1.00  0.00     0.314 HD
ENDBRANCH   1  13
TORSDOF 5
ENDMDL
MODEL 10
REMARK VINA RESULT:      -5.1      2.890      3.441
REMARK  5 active torsions:
REMARK  status: ('A' for Active; 'I' for Inactive)
REMARK    1  A    between atoms: CG_2  and  CB_6 
REMARK    2  A    between atoms: CB_6  and  CA_7 
REMARK    3  A    between atoms: CA_7  and  C_9 
REMARK    4  A    between atoms: CA_7  and  N_8 
REMARK    5  A    between atoms: C_9  and  O_10 
ROOT
ATOM      1  CA  HIS A   1      16.971  35.667  21.546  1.00  0.00     0.320 C 
ENDROOT
BRANCH   1   2
ATOM      2  CB  HIS A   1      17.072  37.201  21.717  1.00  0.00     0.107 C 
BRANCH   2   3
ATOM      3  CG  HIS A   1      18.203  37.778  20.917  1.00  0.00     0.053 A 
ATOM      4  ND1 HIS A   1      18.780  38.969  21.173  1.00  0.00    -0.247 NA
ATOM      5  CE1 HIS A   1      19.716  39.090  20.209  1.00  0.00     0.207 A 
ATOM      6  NE2 HIS A   1      19.741  38.036  19.370  1.00  0.00    -0.359 N 
ATOM      7  CD2 HIS A   1      18.787  37.203  19.810  1.00  0.00     0.116 A 
ATOM      8  HE2 HIS A   1      20.369  37.899  18.548  1.00  0.00     0.166 HD
ENDBRANCH   2   3
ENDBRANCH   1   2
BRANCH   1   9
ATOM      9  C   HIS A   1      15.757  35.240  20.761  1.00  0.00     0.174 C 
ATOM     10  OXT HIS A   1      15.911  34.653  19.657  1.00  0.00    -0.648 OA
BRANCH   9  11
ATOM     11  O   HIS A   1      14.470  35.469  21.242  1.00  0.00    -0.775 OA
ATOM     12  H   HIS A   1      14.138  36.411  21.412  1.00  0.00     0.167 HD
ENDBRANCH   9  11
ENDBRANCH   1   9
BRANCH   1  13
ATOM     13  N   HIS A   1      16.950  35.005  22.851  1.00  0.00     0.093 N 
ATOM     14  H1  HIS A   1      16.772  35.715  23.598  1.00  0.00     0.314 HD
ATOM     15  H2  HIS A   1      17.893  34.588  23.033  1.00  0.00     0.314 HD
ENDBRANCH   1  13
TORSDOF 5
ENDMDL
MODEL 11
REMARK VINA RESULT:      -5.0      2.897      4.737
REMARK  5 active torsions:
REMARK  status: ('A' for Active; 'I' for Inactive)
REMARK    1  A    between atoms: CG_2  and  CB_6 
REMARK    2  A    between atoms: CB_6  and  CA_7 
REMARK    3  A    between atoms: CA_7  and  C_9 
REMARK    4  A    between atoms: CA_7  and  N_8 
REMARK    5  A    between atoms: C_9  and  O_10 
ROOT
ATOM      1  CA  HIS A   1      18.110  38.572  21.282  1.00  0.00     0.320 C 
ENDROOT
BRANCH   1   2
ATOM      2  CB  HIS A   1      17.075  37.598  21.894  1.00  0.00     0.107 C 
BRANCH   2   3
ATOM      3  CG  HIS A   1      17.137  37.587  23.393  1.00  0.00     0.053 A 
ATOM      4  ND1 HIS A   1      17.011  38.686  24.163  1.00  0.00    -0.247 NA
ATOM      5  CE1 HIS A   1      17.152  38.218  25.421  1.00  0.00     0.207 A 
ATOM      6  NE2 HIS A   1      17.363  36.888  25.464  1.00  0.00    -0.359 N 
ATOM      7  CD2 HIS A   1      17.357  36.482  24.185  1.00  0.00     0.116 A 
ATOM      8  HE2 HIS A   1      17.505  36.299  26.313  1.00  0.00     0.166 HD
ENDBRANCH   2   3
ENDBRANCH   1   2
BRANCH   1   9
ATOM      9  C   HIS A   1      18.916  37.952  20.168  1.00  0.00     0.174 C 
ATOM     10  OXT HIS A   1      19.939  38.549  19.741  1.00  0.00    -0.648 OA
BRANCH   9  11
ATOM     11  O   HIS A   1      18.557  36.724  19.616  1.00  0.00    -0.775 OA
ATOM     12  H   HIS A   1      19.258  36.025  19.405  1.00  0.00     0.167 HD
ENDBRANCH   9  11
ENDBRANCH   1   9
BRANCH   1  13
ATOM     13  N   HIS A   1      19.024  39.066  22.313  1.00  0.00     0.093 N 
ATOM     14  H1  HIS A   1      19.806  38.382  22.438  1.00  0.00     0.314 HD
ATOM     15  H2  HIS A   1      18.509  39.124  23.222  1.00  0.00     0.314 HD
ENDBRANCH   1  13
TORSDOF 5
ENDMDL
MODEL 12
REMARK VINA RESULT:      -5.0      1.800      2.166
REMARK  5 active torsions:
REMARK  status: ('A' for Active; 'I' for Inactive)
REMARK    1  A    between atoms: CG_2  and  CB_6 
REMARK    2  A    between atoms: CB_6  and  CA_7 
REMARK    3  A    between atoms: CA_7  and  C_9 
REMARK    4  A    between atoms: CA_7  and  N_8 
REMARK    5  A    between atoms: C_9  and  O_10 
ROOT
ATOM      1  CA  HIS A   1      17.494  37.900  23.186  1.00  0.00     0.320 C 
ENDROOT
BRANCH   1   2
ATOM      2  CB  HIS A   1      17.936  39.051  22.253  1.00  0.00     0.107 C 
BRANCH   2   3
ATOM      3  CG  HIS A   1      18.585  38.537  21.001  1.00  0.00     0.053 A 
ATOM      4  ND1 HIS A   1      18.352  37.319  20.474  1.00  0.00    -0.247 NA
ATOM      5  CE1 HIS A   1      19.151  37.278  19.387  1.00  0.00     0.207 A 
ATOM      6  NE2 HIS A   1      19.865  38.407  19.221  1.00  0.00    -0.359 N 
ATOM      7  CD2 HIS A   1      19.515  39.208  20.238  1.00  0.00     0.116 A 
ATOM      8  HE2 HIS A   1      20.551  38.614  18.462  1.00  0.00     0.166 HD
ENDBRANCH   2   3
ENDBRANCH   1   2
BRANCH   1   9
ATOM      9  C   HIS A   1      16.055  37.498  22.985  1.00  0.00     0.174 C 
ATOM     10  OXT HIS A   1      15.163  38.011  23.712  1.00  0.00    -0.648 OA
BRANCH   9  11
ATOM     11  O   HIS A   1      15.694  36.581  22.001  1.00  0.00    -0.775 OA
ATOM     12  H   HIS A   1      16.281  35.782  21.794  1.00  0.00     0.167 HD
ENDBRANCH   9  11
ENDBRANCH   1   9
BRANCH   1  13
ATOM     13  N   HIS A   1      17.694  38.269  24.588  1.00  0.00     0.093 N 
ATOM     14  H1  HIS A   1      16.812  38.689  24.965  1.00  0.00     0.314 HD
ATOM     15  H2  HIS A   1      18.439  39.002  24.642  1.00  0.00     0.314 HD
ENDBRANCH   1  13
TORSDOF 5
ENDMDL
MODEL 13
REMARK VINA RESULT:      -4.9      9.033      9.836
REMARK  5 active torsions:
REMARK  status: ('A' for Active; 'I' for Inactive)
REMARK    1  A    between atoms: CG_2  and  CB_6 
REMARK    2  A    between atoms: CB_6  and  CA_7 
REMARK    3  A    between atoms: CA_7  and  C_9 
REMARK    4  A    between atoms: CA_7  and  N_8 
REMARK    5  A    between atoms: C_9  and  O_10 
ROOT
ATOM      1  CA  HIS A   1      13.452  31.197  16.104  1.00  0.00     0.320 C 
ENDROOT
BRANCH   1   2
ATOM      2  CB  HIS A   1      14.592  30.455  15.368  1.00  0.00     0.107 C 
BRANCH   2   3
ATOM      3  CG  HIS A   1      15.529  31.408  14.685  1.00  0.00     0.053 A 
ATOM      4  ND1 HIS A   1      16.357  32.250  15.335  1.00  0.00    -0.247 NA
ATOM      5  CE1 HIS A   1      16.983  32.918  14.343  1.00  0.00     0.207 A 
ATOM      6  NE2 HIS A   1      16.579  32.532  13.117  1.00  0.00    -0.359 N 
ATOM      7  CD2 HIS A   1      15.659  31.579  13.325  1.00  0.00     0.116 A 
ATOM      8  HE2 HIS A   1      16.910  32.901  12.199  1.00  0.00     0.166 HD
ENDBRANCH   2   3
ENDBRANCH   1   2
BRANCH   1   9
ATOM      9  C   HIS A   1      13.923  31.927  17.337  1.00  0.00     0.174 C 
ATOM     10  OXT HIS A   1      14.103  31.283  18.404  1.00  0.00    -0.648 OA
BRANCH   9  11
ATOM     11  O   HIS A   1      14.178  33.296  17.310  1.00  0.00    -0.775 OA
ATOM     12  H   HIS A   1      13.451  33.956  17.061  1.00  0.00     0.167 HD
ENDBRANCH   9  11
ENDBRANCH   1   9
BRANCH   1  13
ATOM     13  N   HIS A   1      12.389  30.265  16.481  1.00  0.00     0.093 N 
ATOM     14  H1  HIS A   1      12.454  29.407  15.885  1.00  0.00     0.314 HD
ATOM     15  H2  HIS A   1      11.463  30.712  16.286  1.00  0.00     0.314 HD
ENDBRANCH   1  13
TORSDOF 5
ENDMDL
MODEL 14
REMARK VINA RESULT:      -4.9      9.005     10.394
REMARK  5 active torsions:
REMARK  status: ('A' for Active; 'I' for Inactive)
REMARK    1  A    between atoms: CG_2  and  CB_6 
REMARK    2  A    between atoms: CB_6  and  CA_7 
REMARK    3  A    between atoms: CA_7  and  C_9 
REMARK    4  A    between atoms: CA_7  and  N_8 
REMARK    5  A    between atoms: C_9  and  O_10 
ROOT
ATOM      1  CA  HIS A   1      16.991  33.199  14.587  1.00  0.00     0.320 C 
ENDROOT
BRANCH   1   2
ATOM      2  CB  HIS A   1      15.862  32.142  14.587  1.00  0.00     0.107 C 
BRANCH   2   3
ATOM      3  CG  HIS A   1      15.189  32.043  15.925  1.00  0.00     0.053 A 
ATOM      4  ND1 HIS A   1      15.599  32.700  17.028  1.00  0.00    -0.247 NA
ATOM      5  CE1 HIS A   1      14.732  32.303  17.982  1.00  0.00     0.207 A 
ATOM      6  NE2 HIS A   1      13.812  31.433  17.524  1.00  0.00    -0.359 N 
ATOM      7  CD2 HIS A   1      14.095  31.262  16.224  1.00  0.00     0.116 A 
ATOM      8  HE2 HIS A   1      13.043  30.984  18.067  1.00  0.00     0.166 HD
ENDBRANCH   2   3
ENDBRANCH   1   2
BRANCH   1   9
ATOM      9  C   HIS A   1      17.456  33.565  13.200  1.00  0.00     0.174 C 
ATOM     10  OXT HIS A   1      17.413  34.769  12.832  1.00  0.00    -0.648 OA
BRANCH   9  11
ATOM     11  O   HIS A   1      17.946  32.598  12.326  1.00  0.00    -0.775 OA
ATOM     12  H   HIS A   1      17.569  32.503  11.391  1.00  0.00     0.167 HD
ENDBRANCH   9  11
ENDBRANCH   1   9
BRANCH   1  13
ATOM     13  N   HIS A   1      18.137  32.727  15.364  1.00  0.00     0.093 N 
ATOM     14  H1  HIS A   1      18.408  31.771  15.036  1.00  0.00     0.314 HD
ATOM     15  H2  HIS A   1      17.854  32.646  16.368  1.00  0.00     0.314 HD
ENDBRANCH   1  13
TORSDOF 5
ENDMDL
MODEL 15
REMARK VINA RESULT:      -4.9      9.916     10.940
REMARK  5 active torsions:
REMARK  status: ('A' for Active; 'I' for Inactive)
REMARK    1  A    between atoms: CG_2  and  CB_6 
REMARK    2  A    between atoms: CB_6  and  CA_7 
REMARK    3  A    between atoms: CA_7  and  C_9 
REMARK    4  A    between atoms: CA_7  and  N_8 
REMARK    5  A    between atoms: C_9  and  O_10 
ROOT
ATOM      1  CA  HIS A   1      15.566  32.103  15.718  1.00  0.00     0.320 C 
ENDROOT
BRANCH   1   2
ATOM      2  CB  HIS A   1      14.269  31.267  15.625  1.00  0.00     0.107 C 
BRANCH   2   3
ATOM      3  CG  HIS A   1      14.459  30.031  14.795  1.00  0.00     0.053 A 
ATOM      4  ND1 HIS A   1      15.659  29.574  14.383  1.00  0.00    -0.247 NA
ATOM      5  CE1 HIS A   1      15.355  28.475  13.661  1.00  0.00     0.207 A 
ATOM      6  NE2 HIS A   1      14.031  28.236  13.603  1.00  0.00    -0.359 N 
ATOM      7  CD2 HIS A   1      13.457  29.216  14.317  1.00  0.00     0.116 A 
ATOM      8  HE2 HIS A   1      13.552  27.454  13.106  1.00  0.00     0.166 HD
ENDBRANCH   2   3
ENDBRANCH   1   2
BRANCH   1   9
ATOM      9  C   HIS A   1      15.399  33.363  16.530  1.00  0.00     0.174 C 
ATOM     10  OXT HIS A   1      15.997  34.412  16.171  1.00  0.00    -0.648 OA
BRANCH   9  11
ATOM     11  O   HIS A   1      14.583  33.390  17.659  1.00  0.00    -0.775 OA
ATOM     12  H   HIS A   1      14.577  32.619  18.315  1.00  0.00     0.167 HD
ENDBRANCH   9  11
ENDBRANCH   1   9
BRANCH   1  13
ATOM     13  N   HIS A   1      16.047  32.458  14.383  1.00  0.00     0.093 N 
ATOM     14  H1  HIS A   1      15.261  32.874  13.831  1.00  0.00     0.314 HD
ATOM     15  H2  HIS A   1      16.351  31.586  13.890  1.00  0.00     0.314 HD
ENDBRANCH   1  13
TORSDOF 5
ENDMDL
MODEL 16
REMARK VINA RESULT:      -4.9      3.241      4.391
REMARK  5 active torsions:
REMARK  status: ('A' for Active; 'I' for Inactive)
REMARK    1  A    between atoms: CG_2  and  CB_6 
REMARK    2  A    between atoms: CB_6  and  CA_7 
REMARK    3  A    between atoms: CA_7  and  C_9 
REMARK    4  A    between atoms: CA_7  and  N_8 
REMARK    5  A    between atoms: C_9  and  O_10 
ROOT
ATOM      1  CA  HIS A   1      17.442  37.842  21.674  1.00  0.00     0.320 C 
ENDROOT
BRANCH   1   2
ATOM      2  CB  HIS A   1      17.613  36.493  20.937  1.00  0.00     0.107 C 
BRANCH   2   3
ATOM      3  CG  HIS A   1      16.390  35.631  21.060  1.00  0.00     0.053 A 
ATOM      4  ND1 HIS A   1      16.341  34.333  20.700  1.00  0.00    -0.247 NA
ATOM      5  CE1 HIS A   1      15.066  33.974  20.960  1.00  0.00     0.207 A 
ATOM      6  NE2 HIS A   1      14.328  34.985  21.457  1.00  0.00    -0.359 N 
ATOM      7  CD2 HIS A   1      15.158  36.037  21.521  1.00  0.00     0.116 A 
ATOM      8  HE2 HIS A   1      13.322  34.957  21.730  1.00  0.00     0.166 HD
ENDBRANCH   2   3
ENDBRANCH   1   2
BRANCH   1   9
ATOM      9  C   HIS A   1      18.451  38.879  21.247  1.00  0.00     0.174 C 
ATOM     10  OXT HIS A   1      18.478  39.257  20.046  1.00  0.00    -0.648 OA
BRANCH   9  11
ATOM     11  O   HIS A   1      19.342  39.436  22.161  1.00  0.00    -0.775 OA
ATOM     12  H   HIS A   1      19.040  40.148  22.814  1.00  0.00     0.167 HD
ENDBRANCH   9  11
ENDBRANCH   1   9
BRANCH   1  13
ATOM     13  N   HIS A   1      17.537  37.654  23.122  1.00  0.00     0.093 N 
ATOM     14  H1  HIS A   1      18.324  36.998  23.335  1.00  0.00     0.314 HD
ATOM     15  H2  HIS A   1      16.655  37.207  23.463  1.00  0.00     0.314 HD
ENDBRANCH   1  13
TORSDOF 5
ENDMDL
MODEL 17
REMARK VINA RESULT:      -4.9      1.418      1.877
REMARK  5 active torsions:
REMARK  status: ('A' for Active; 'I' for Inactive)
REMARK    1  A    between atoms: CG_2  and  CB_6 
REMARK    2  A    between atoms: CB_6  and  CA_7 
REMARK    3  A    between atoms: CA_7  and  C_9 
REMARK    4  A    between atoms: CA_7  and  N_8 
REMARK    5  A    between atoms: C_9  and  O_10 
ROOT
ATOM      1  CA  HIS A   1      16.258  37.055  22.094  1.00  0.00     0.320 C 
ENDROOT
BRANCH   1   2
ATOM      2  CB  HIS A   1      17.406  36.410  21.284  1.00  0.00     0.107 C 
BRANCH   2   3
ATOM      3  CG  HIS A   1      18.300  37.442  20.662  1.00  0.00     0.053 A 
ATOM      4  ND1 HIS A   1      18.412  38.711  21.104  1.00  0.00    -0.247 NA
ATOM      5  CE1 HIS A   1      19.291  39.275  20.249  1.00  0.00     0.207 A 
ATOM      6  NE2 HIS A   1      19.722  38.420  19.302  1.00  0.00    -0.359 N 
ATOM      7  CD2 HIS A   1      19.099  37.259  19.556  1.00  0.00     0.116 A 
ATOM      8  HE2 HIS A   1      20.396  38.619  18.531  1.00  0.00     0.166 HD
ENDBRANCH   2   3
ENDBRANCH   1   2
BRANCH   1   9
ATOM      9  C   HIS A   1      16.527  37.085  23.578  1.00  0.00     0.174 C 
ATOM     10  OXT HIS A   1      16.050  38.021  24.273  1.00  0.00    -0.648 OA
BRANCH   9  11
ATOM     11  O   HIS A   1      17.279  36.088  24.194  1.00  0.00    -0.775 OA
ATOM     12  H   HIS A   1      17.271  35.978  25.201  1.00  0.00     0.167 HD
ENDBRANCH   9  11
ENDBRANCH   1   9
BRANCH   1  13
ATOM     13  N   HIS A   1      14.998  36.350  21.853  1.00  0.00     0.093 N 
ATOM     14  H1  HIS A   1      14.696  35.871  22.733  1.00  0.00     0.314 HD
ATOM     15  H2  HIS A   1      15.158  35.610  21.131  1.00  0.00     0.314 HD
ENDBRANCH   1  13
TORSDOF 5
ENDMDL
MODEL 18
REMARK VINA RESULT:      -4.8      8.905      9.957
REMARK  5 active torsions:
REMARK  status: ('A' for Active; 'I' for Inactive)
REMARK    1  A    between atoms: CG_2  and  CB_6 
REMARK    2  A    between atoms: CB_6  and  CA_7 
REMARK    3  A    between atoms: CA_7  and  C_9 
REMARK    4  A    between atoms: CA_7  and  N_8 
REMARK    5  A    between atoms: C_9  and  O_10 
ROOT
ATOM      1  CA  HIS A   1      15.194  33.537  16.518  1.00  0.00     0.320 C 
ENDROOT
BRANCH   1   2
ATOM      2  CB  HIS A   1      14.981  32.131  17.126  1.00  0.00     0.107 C 
BRANCH   2   3
ATOM      3  CG  HIS A   1      14.268  31.214  16.175  1.00  0.00     0.053 A 
ATOM      4  ND1 HIS A   1      14.840  30.659  15.088  1.00  0.00    -0.247 NA
ATOM      5  CE1 HIS A   1      13.842  29.942  14.528  1.00  0.00     0.207 A 
ATOM      6  NE2 HIS A   1      12.686  30.032  15.213  1.00  0.00    -0.359 N 
ATOM      7  CD2 HIS A   1      12.946  30.836  16.255  1.00  0.00     0.116 A 
ATOM      8  HE2 HIS A   1      11.777  29.576  14.980  1.00  0.00     0.166 HD
ENDBRANCH   2   3
ENDBRANCH   1   2
BRANCH   1   9
ATOM      9  C   HIS A   1      16.518  33.679  15.812  1.00  0.00     0.174 C 
ATOM     10  OXT HIS A   1      16.944  34.830  15.524  1.00  0.00    -0.648 OA
BRANCH   9  11
ATOM     11  O   HIS A   1      17.285  32.563  15.486  1.00  0.00    -0.775 OA
ATOM     12  H   HIS A   1      17.308  31.753  16.094  1.00  0.00     0.167 HD
ENDBRANCH   9  11
ENDBRANCH   1   9
BRANCH   1  13
ATOM     13  N   HIS A   1      15.095  34.566  17.554  1.00  0.00     0.093 N 
ATOM     14  H1  HIS A   1      14.309  34.329  18.204  1.00  0.00     0.314 HD
ATOM     15  H2  HIS A   1      14.863  35.480  17.101  1.00  0.00     0.314 HD
ENDBRANCH   1  13
TORSDOF 5
ENDMDL
MODEL 19
REMARK VINA RESULT:      -4.8      3.372      4.249
REMARK  5 active torsions:
REMARK  status: ('A' for Active; 'I' for Inactive)
REMARK    1  A    between atoms: CG_2  and  CB_6 
REMARK    2  A    between atoms: CB_6  and  CA_7 
REMARK    3  A    between atoms: CA_7  and  C_9 
REMARK    4  A    between atoms: CA_7  and  N_8 
REMARK    5  A    between atoms: C_9  and  O_10 
ROOT
ATOM      1  CA  HIS A   1      15.686  35.064  20.482  1.00  0.00     0.320 C 
ENDROOT
BRANCH   1   2
ATOM      2  CB  HIS A   1      16.955  35.270  21.342  1.00  0.00     0.107 C 
BRANCH   2   3
ATOM      3  CG  HIS A   1      17.473  36.675  21.245  1.00  0.00     0.053 A 
ATOM      4  ND1 HIS A   1      17.045  37.694  22.017  1.00  0.00    -0.247 NA
ATOM      5  CE1 HIS A   1      17.754  38.754  21.577  1.00  0.00     0.207 A 
ATOM      6  NE2 HIS A   1      18.593  38.440  20.571  1.00  0.00    -0.359 N 
ATOM      7  CD2 HIS A   1      18.420  37.128  20.354  1.00  0.00     0.116 A 
ATOM      8  HE2 HIS A   1      19.239  39.084  20.064  1.00  0.00     0.166 HD
ENDBRANCH   2   3
ENDBRANCH   1   2
BRANCH   1   9
ATOM      9  C   HIS A   1      14.950  33.790  20.813  1.00  0.00     0.174 C 
ATOM     10  OXT HIS A   1      15.299  32.714  20.260  1.00  0.00    -0.648 OA
BRANCH   9  11
ATOM     11  O   HIS A   1      13.902  33.781  21.731  1.00  0.00    -0.775 OA
ATOM     12  H   HIS A   1      13.417  32.922  21.959  1.00  0.00     0.167 HD
ENDBRANCH   9  11
ENDBRANCH   1   9
BRANCH   1  13
ATOM     13  N   HIS A   1      16.024  35.061  19.058  1.00  0.00     0.093 N 
ATOM     14  H1  HIS A   1      17.062  34.979  18.949  1.00  0.00     0.314 HD
ATOM     15  H2  HIS A   1      15.736  35.977  18.641  1.00  0.00     0.314 HD
ENDBRANCH   1  13
TORSDOF 5
ENDMDL
MODEL 20
REMARK VINA RESULT:      -4.8      3.147      4.948
REMARK  5 active torsions:
REMARK  status: ('A' for Active; 'I' for Inactive)
REMARK    1  A    between atoms: CG_2  and  CB_6 
REMARK    2  A    between atoms: CB_6  and  CA_7 
REMARK    3  A    between atoms: CA_7  and  C_9 
REMARK    4  A    between atoms: CA_7  and  N_8 
REMARK    5  A    between atoms: C_9  and  O_10 
ROOT
ATOM      1  CA  HIS A   1      17.489  38.503  23.213  1.00  0.00     0.320 C 
ENDROOT
BRANCH   1   2
ATOM      2  CB  HIS A   1      16.494  37.623  24.005  1.00  0.00     0.107 C 
BRANCH   2   3
ATOM      3  CG  HIS A   1      17.193  36.758  25.012  1.00  0.00     0.053 A 
ATOM      4  ND1 HIS A   1      17.732  37.217  26.159  1.00  0.00    -0.247 NA
ATOM      5  CE1 HIS A   1      18.263  36.115  26.730  1.00  0.00     0.207 A 
ATOM      6  NE2 HIS A   1      18.081  35.003  25.992  1.00  0.00    -0.359 N 
ATOM      7  CD2 HIS A   1      17.407  35.402  24.903  1.00  0.00     0.116 A 
ATOM      8  HE2 HIS A   1      18.401  34.037  26.217  1.00  0.00     0.166 HD
ENDBRANCH   2   3
ENDBRANCH   1   2
BRANCH   1   9
ATOM      9  C   HIS A   1      17.649  38.067  21.778  1.00  0.00     0.174 C 
ATOM     10  OXT HIS A   1      18.124  38.875  20.937  1.00  0.00    -0.648 OA
BRANCH   9  11
ATOM     11  O   HIS A   1      17.296  36.782  21.372  1.00  0.00    -0.775 OA
ATOM     12  H   HIS A   1      16.883  36.619  20.462  1.00  0.00     0.167 HD
ENDBRANCH   9  11
ENDBRANCH   1   9
BRANCH   1  13
ATOM     13  N   HIS A   1      18.802  38.504  23.859  1.00  0.00     0.093 N 
ATOM     14  H1  HIS A   1      19.446  37.867  23.335  1.00  0.00     0.314 HD
ATOM     15  H2  HIS A   1      18.702  38.123  24.828  1.00  0.00     0.314 HD
ENDBRANCH   1  13
TORSDOF 5
ENDMDL
