MODEL 1
REMARK VINA RESULT:      -4.1      0.000      0.000
REMARK  3 active torsions:
REMARK  status: ('A' for Active; 'I' for Inactive)
REMARK    1  A    between atoms: C_2  and  C_3 
REMARK    2  A    between atoms: C_3  and  C_4 
REMARK    3  A    between atoms: C_4  and  O_5 
ROOT
HETATM    1  C   LIG     1      18.607  36.912  26.095  1.00  0.00     0.026 C 
ENDROOT
BRANCH   1   2
HETATM    2  C   LIG     1      18.281  35.455  26.460  1.00  0.00    -0.002 C 
HETATM    3  C   LIG     1      17.331  34.787  25.468  1.00  0.00     0.005 C 
ENDBRANCH   1   2
BRANCH   1   4
HETATM    4  C   LIG     1      17.496  37.605  25.293  1.00  0.00     0.164 C 
BRANCH   4   5
HETATM    5  O   LIG     1      17.230  38.886  25.795  1.00  0.00    -0.401 OA
HETATM    6  H   LIG     1      16.343  39.153  25.441  1.00  0.00     0.209 HD
ENDBRANCH   4   5
ENDBRANCH   1   4
TORSDOF 3
ENDMDL
MODEL 2
REMARK VINA RESULT:      -3.8      1.302      1.793
REMARK  3 active torsions:
REMARK  status: ('A' for Active; 'I' for Inactive)
REMARK    1  A    between atoms: C_2  and  C_3 
REMARK    2  A    between atoms: C_3  and  C_4 
REMARK    3  A    between atoms: C_4  and  O_5 
ROOT
HETATM    1  C   LIG     1      17.239  35.950  24.531  1.00  0.00     0.026 C 
ENDROOT
BRANCH   1   2
HETATM    2  C   LIG     1      17.667  35.155  25.776  1.00  0.00    -0.002 C 
HETATM    3  C   LIG     1      18.420  36.002  26.799  1.00  0.00     0.005 C 
ENDBRANCH   1   2
BRANCH   1   4
HETATM    4  C   LIG     1      17.110  37.460  24.785  1.00  0.00     0.164 C 
BRANCH   4   5
HETATM    5  O   LIG     1      15.947  37.975  24.197  1.00  0.00    -0.401 OA
HETATM    6  H   LIG     1      15.832  37.504  23.332  1.00  0.00     0.209 HD
ENDBRANCH   4   5
ENDBRANCH   1   4
TORSDOF 3
ENDMDL
MODEL 3
REMARK VINA RESULT:      -3.6      5.533      6.262
REMARK  3 active torsions:
REMARK  status: ('A' for Active; 'I' for Inactive)
REMARK    1  A    between atoms: C_2  and  C_3 
REMARK    2  A    between atoms: C_3  and  C_4 
REMARK    3  A    between atoms: C_4  and  O_5 
ROOT
HETATM    1  C   LIG     1      19.093  39.238  20.683  1.00  0.00     0.026 C 
ENDROOT
BRANCH   1   2
HETATM    2  C   LIG     1      18.074  38.289  21.334  1.00  0.00    -0.002 C 
HETATM    3  C   LIG     1      17.203  38.975  22.386  1.00  0.00     0.005 C 
ENDBRANCH   1   2
BRANCH   1   4
HETATM    4  C   LIG     1      19.862  38.602  19.516  1.00  0.00     0.164 C 
BRANCH   4   5
HETATM    5  O   LIG     1      20.767  39.510  18.949  1.00  0.00    -0.401 OA
HETATM    6  H   LIG     1      21.338  38.992  18.325  1.00  0.00     0.209 HD
ENDBRANCH   4   5
ENDBRANCH   1   4
TORSDOF 3
ENDMDL
MODEL 4
REMARK VINA RESULT:      -3.4      3.232      3.775
REMARK  3 active torsions:
REMARK  status: ('A' for Active; 'I' for Inactive)
REMARK    1  A    between atoms: C_2  and  C_3 
REMARK    2  A    between atoms: C_3  and  C_4 
REMARK    3  A    between atoms: C_4  and  O_5 
ROOT
HETATM    1  C   LIG     1      17.100  37.741  22.118  1.00  0.00     0.026 C 
ENDROOT
BRANCH   1   2
HETATM    2  C   LIG     1      17.265  36.413  21.362  1.00  0.00    -0.002 C 
HETATM    3  C   LIG     1      16.948  35.191  22.222  1.00  0.00     0.005 C 
ENDBRANCH   1   2
BRANCH   1   4
HETATM    4  C   LIG     1      16.508  37.574  23.526  1.00  0.00     0.164 C 
BRANCH   4   5
HETATM    5  O   LIG     1      15.206  38.089  23.593  1.00  0.00    -0.401 OA
HETATM    6  H   LIG     1      15.101  38.484  24.497  1.00  0.00     0.209 HD
ENDBRANCH   4   5
ENDBRANCH   1   4
TORSDOF 3
ENDMDL
MODEL 5
REMARK VINA RESULT:      -3.4      3.537      4.703
REMARK  3 active torsions:
REMARK  status: ('A' for Active; 'I' for Inactive)
REMARK    1  A    between atoms: C_2  and  C_3 
REMARK    2  A    between atoms: C_3  and  C_4 
REMARK    3  A    between atoms: C_4  and  O_5 
ROOT
HETATM    1  C   LIG     1      17.406  38.296  22.216  1.00  0.00     0.026 C 
ENDROOT
BRANCH   1   2
HETATM    2  C   LIG     1      18.489  39.318  21.834  1.00  0.00    -0.002 C 
HETATM    3  C   LIG     1      18.959  39.180  20.387  1.00  0.00     0.005 C 
ENDBRANCH   1   2
BRANCH   1   4
HETATM    4  C   LIG     1      17.257  38.102  23.732  1.00  0.00     0.164 C 
BRANCH   4   5
HETATM    5  O   LIG     1      15.907  38.058  24.108  1.00  0.00    -0.401 OA
HETATM    6  H   LIG     1      15.454  38.802  23.632  1.00  0.00     0.209 HD
ENDBRANCH   4   5
ENDBRANCH   1   4
TORSDOF 3
ENDMDL
MODEL 6
REMARK VINA RESULT:      -3.3      5.933      6.689
REMARK  3 active torsions:
REMARK  status: ('A' for Active; 'I' for Inactive)
REMARK    1  A    between atoms: C_2  and  C_3 
REMARK    2  A    between atoms: C_3  and  C_4 
REMARK    3  A    between atoms: C_4  and  O_5 
ROOT
HETATM    1  C   LIG     1      19.602  38.310  19.504  1.00  0.00     0.026 C 
ENDROOT
BRANCH   1   2
HETATM    2  C   LIG     1      19.023  39.397  20.425  1.00  0.00    -0.002 C 
HETATM    3  C   LIG     1      18.085  38.840  21.493  1.00  0.00     0.005 C 
ENDBRANCH   1   2
BRANCH   1   4
HETATM    4  C   LIG     1      18.939  36.937  19.688  1.00  0.00     0.164 C 
BRANCH   4   5
HETATM    5  O   LIG     1      18.147  36.604  18.581  1.00  0.00    -0.401 OA
HETATM    6  H   LIG     1      18.362  35.664  18.348  1.00  0.00     0.209 HD
ENDBRANCH   4   5
ENDBRANCH   1   4
TORSDOF 3
ENDMDL
MODEL 7
REMARK VINA RESULT:      -3.3      5.366      5.907
REMARK  3 active torsions:
REMARK  status: ('A' for Active; 'I' for Inactive)
REMARK    1  A    between atoms: C_2  and  C_3 
REMARK    2  A    between atoms: C_3  and  C_4 
REMARK    3  A    between atoms: C_4  and  O_5 
ROOT
HETATM    1  C   LIG     1      16.351  35.334  20.642  1.00  0.00     0.026 C 
ENDROOT
BRANCH   1   2
HETATM    2  C   LIG     1      17.511  36.237  21.094  1.00  0.00    -0.002 C 
HETATM    3  C   LIG     1      18.383  36.718  19.936  1.00  0.00     0.005 C 
ENDBRANCH   1   2
BRANCH   1   4
HETATM    4  C   LIG     1      15.001  35.714  21.268  1.00  0.00     0.164 C 
BRANCH   4   5
HETATM    5  O   LIG     1      14.229  34.575  21.537  1.00  0.00    -0.401 OA
HETATM    6  H   LIG     1      13.394  34.892  21.970  1.00  0.00     0.209 HD
ENDBRANCH   4   5
ENDBRANCH   1   4
TORSDOF 3
ENDMDL
MODEL 8
REMARK VINA RESULT:      -3.3      5.339      5.940
REMARK  3 active torsions:
REMARK  status: ('A' for Active; 'I' for Inactive)
REMARK    1  A    between atoms: C_2  and  C_3 
REMARK    2  A    between atoms: C_3  and  C_4 
REMARK    3  A    between atoms: C_4  and  O_5 
ROOT
HETATM    1  C   LIG     1      19.000  39.327  19.929  1.00  0.00     0.026 C 
ENDROOT
BRANCH   1   2
HETATM    2  C   LIG     1      19.608  38.005  19.432  1.00  0.00    -0.002 C 
HETATM    3  C   LIG     1      18.744  36.788  19.758  1.00  0.00     0.005 C 
ENDBRANCH   1   2
BRANCH   1   4
HETATM    4  C   LIG     1      18.411  39.234  21.345  1.00  0.00     0.164 C 
BRANCH   4   5
HETATM    5  O   LIG     1      19.415  39.333  22.318  1.00  0.00    -0.401 OA
HETATM    6  H   LIG     1      20.133  39.897  21.931  1.00  0.00     0.209 HD
ENDBRANCH   4   5
ENDBRANCH   1   4
TORSDOF 3
ENDMDL
MODEL 9
REMARK VINA RESULT:      -3.3     11.029     11.944
REMARK  3 active torsions:
REMARK  status: ('A' for Active; 'I' for Inactive)
REMARK    1  A    between atoms: C_2  and  C_3 
REMARK    2  A    between atoms: C_3  and  C_4 
REMARK    3  A    between atoms: C_4  and  O_5 
ROOT
HETATM    1  C   LIG     1      13.043  30.773  16.285  1.00  0.00     0.026 C 
ENDROOT
BRANCH   1   2
HETATM    2  C   LIG     1      13.731  30.230  15.021  1.00  0.00    -0.002 C 
HETATM    3  C   LIG     1      15.068  30.909  14.728  1.00  0.00     0.005 C 
ENDBRANCH   1   2
BRANCH   1   4
HETATM    4  C   LIG     1      13.887  31.809  17.043  1.00  0.00     0.164 C 
BRANCH   4   5
HETATM    5  O   LIG     1      13.882  31.555  18.422  1.00  0.00    -0.401 OA
HETATM    6  H   LIG     1      13.558  30.625  18.539  1.00  0.00     0.209 HD
ENDBRANCH   4   5
ENDBRANCH   1   4
TORSDOF 3
ENDMDL
MODEL 10
REMARK VINA RESULT:      -3.2     12.573     13.476
REMARK  3 active torsions:
REMARK  status: ('A' for Active; 'I' for Inactive)
REMARK    1  A    between atoms: C_2  and  C_3 
REMARK    2  A    between atoms: C_3  and  C_4 
REMARK    3  A    between atoms: C_4  and  O_5 
ROOT
HETATM    1  C   LIG     1      14.185  30.451  15.006  1.00  0.00     0.026 C 
ENDROOT
BRANCH   1   2
HETATM    2  C   LIG     1      13.053  30.686  16.020  1.00  0.00    -0.002 C 
HETATM    3  C   LIG     1      13.321  31.864  16.955  1.00  0.00     0.005 C 
ENDBRANCH   1   2
BRANCH   1   4
HETATM    4  C   LIG     1      13.998  29.180  14.165  1.00  0.00     0.164 C 
BRANCH   4   5
HETATM    5  O   LIG     1      12.639  28.884  13.989  1.00  0.00    -0.401 OA
HETATM    6  H   LIG     1      12.131  29.554  14.516  1.00  0.00     0.209 HD
ENDBRANCH   4   5
ENDBRANCH   1   4
TORSDOF 3
ENDMDL
MODEL 11
REMARK VINA RESULT:      -3.1     12.626     13.300
REMARK  3 active torsions:
REMARK  status: ('A' for Active; 'I' for Inactive)
REMARK    1  A    between atoms: C_2  and  C_3 
REMARK    2  A    between atoms: C_3  and  C_4 
REMARK    3  A    between atoms: C_4  and  O_5 
ROOT
HETATM    1  C   LIG     1      15.357  30.521  13.576  1.00  0.00     0.026 C 
ENDROOT
BRANCH   1   2
HETATM    2  C   LIG     1      14.228  29.951  14.450  1.00  0.00    -0.002 C 
HETATM    3  C   LIG     1      13.997  30.755  15.728  1.00  0.00     0.005 C 
ENDBRANCH   1   2
BRANCH   1   4
HETATM    4  C   LIG     1      15.906  31.862  14.083  1.00  0.00     0.164 C 
BRANCH   4   5
HETATM    5  O   LIG     1      16.131  32.752  13.023  1.00  0.00    -0.401 OA
HETATM    6  H   LIG     1      15.855  32.283  12.194  1.00  0.00     0.209 HD
ENDBRANCH   4   5
ENDBRANCH   1   4
TORSDOF 3
ENDMDL
MODEL 12
REMARK VINA RESULT:      -3.0     10.350     11.105
REMARK  3 active torsions:
REMARK  status: ('A' for Active; 'I' for Inactive)
REMARK    1  A    between atoms: C_2  and  C_3 
REMARK    2  A    between atoms: C_3  and  C_4 
REMARK    3  A    between atoms: C_4  and  O_5 
ROOT
HETATM    1  C   LIG     1      15.581  32.211  15.578  1.00  0.00     0.026 C 
ENDROOT
BRANCH   1   2
HETATM    2  C   LIG     1      14.575  31.062  15.402  1.00  0.00    -0.002 C 
HETATM    3  C   LIG     1      13.500  31.036  16.487  1.00  0.00     0.005 C 
ENDBRANCH   1   2
BRANCH   1   4
HETATM    4  C   LIG     1      15.127  33.271  16.593  1.00  0.00     0.164 C 
BRANCH   4   5
HETATM    5  O   LIG     1      15.790  34.489  16.385  1.00  0.00    -0.401 OA
HETATM    6  H   LIG     1      15.159  35.207  16.653  1.00  0.00     0.209 HD
ENDBRANCH   4   5
ENDBRANCH   1   4
TORSDOF 3
ENDMDL
MODEL 13
REMARK VINA RESULT:      -3.0     12.964     13.801
REMARK  3 active torsions:
REMARK  status: ('A' for Active; 'I' for Inactive)
REMARK    1  A    between atoms: C_2  and  C_3 
REMARK    2  A    between atoms: C_3  and  C_4 
REMARK    3  A    between atoms: C_4  and  O_5 
ROOT
HETATM    1  C   LIG     1      13.156  30.312  15.347  1.00  0.00     0.026 C 
ENDROOT
BRANCH   1   2
HETATM    2  C   LIG     1      14.391  31.146  15.724  1.00  0.00    -0.002 C 
HETATM    3  C   LIG     1      15.445  31.191  14.619  1.00  0.00     0.005 C 
ENDBRANCH   1   2
BRANCH   1   4
HETATM    4  C   LIG     1      13.451  29.219  14.309  1.00  0.00     0.164 C 
BRANCH   4   5
HETATM    5  O   LIG     1      12.266  28.698  13.770  1.00  0.00    -0.401 OA
HETATM    6  H   LIG     1      11.629  28.601  14.525  1.00  0.00     0.209 HD
ENDBRANCH   4   5
ENDBRANCH   1   4
TORSDOF 3
ENDMDL
MODEL 14
REMARK VINA RESULT:      -3.0      7.699      8.569
REMARK  3 active torsions:
REMARK  status: ('A' for Active; 'I' for Inactive)
REMARK    1  A    between atoms: C_2  and  C_3 
REMARK    2  A    between atoms: C_3  and  C_4 
REMARK    3  A    between atoms: C_4  and  O_5 
ROOT
HETATM    1  C   LIG     1      15.164  32.130  19.383  1.00  0.00     0.026 C 
ENDROOT
BRANCH   1   2
HETATM    2  C   LIG     1      15.020  32.469  17.891  1.00  0.00    -0.002 C 
HETATM    3  C   LIG     1      13.838  31.766  17.227  1.00  0.00     0.005 C 
ENDBRANCH   1   2
BRANCH   1   4
HETATM    4  C   LIG     1      15.450  33.355  20.264  1.00  0.00     0.164 C 
BRANCH   4   5
HETATM    5  O   LIG     1      14.391  33.603  21.148  1.00  0.00    -0.401 OA
HETATM    6  H   LIG     1      13.948  34.435  20.837  1.00  0.00     0.209 HD
ENDBRANCH   4   5
ENDBRANCH   1   4
TORSDOF 3
ENDMDL
MODEL 15
REMARK VINA RESULT:      -3.0     11.826     12.350
REMARK  3 active torsions:
REMARK  status: ('A' for Active; 'I' for Inactive)
REMARK    1  A    between atoms: C_2  and  C_3 
REMARK    2  A    between atoms: C_3  and  C_4 
REMARK    3  A    between atoms: C_4  and  O_5 
ROOT
HETATM    1  C   LIG     1      27.700  38.976  19.348  1.00  0.00     0.026 C 
ENDROOT
BRANCH   1   2
HETATM    2  C   LIG     1      29.167  38.660  19.683  1.00  0.00    -0.002 C 
HETATM    3  C   LIG     1      29.503  38.867  21.158  1.00  0.00     0.005 C 
ENDBRANCH   1   2
BRANCH   1   4
HETATM    4  C   LIG     1      26.963  37.811  18.670  1.00  0.00     0.164 C 
BRANCH   4   5
HETATM    5  O   LIG     1      26.926  36.683  19.501  1.00  0.00    -0.401 OA
HETATM    6  H   LIG     1      27.801  36.225  19.399  1.00  0.00     0.209 HD
ENDBRANCH   4   5
ENDBRANCH   1   4
TORSDOF 3
ENDMDL
MODEL 16
REMARK VINA RESULT:      -3.0     18.396     19.145
REMARK  3 active torsions:
REMARK  status: ('A' for Active; 'I' for Inactive)
REMARK    1  A    between atoms: C_2  and  C_3 
REMARK    2  A    between atoms: C_3  and  C_4 
REMARK    3  A    between atoms: C_4  and  O_5 
ROOT
HETATM    1  C   LIG     1       4.231  44.257  15.701  1.00  0.00     0.026 C 
ENDROOT
BRANCH   1   2
HETATM    2  C   LIG     1       4.300  44.542  14.192  1.00  0.00    -0.002 C 
HETATM    3  C   LIG     1       3.005  45.130  13.634  1.00  0.00     0.005 C 
ENDBRANCH   1   2
BRANCH   1   4
HETATM    4  C   LIG     1       3.307  43.083  16.059  1.00  0.00     0.164 C 
BRANCH   4   5
HETATM    5  O   LIG     1       3.831  42.330  17.119  1.00  0.00    -0.401 OA
HETATM    6  H   LIG     1       3.649  41.377  16.910  1.00  0.00     0.209 HD
ENDBRANCH   4   5
ENDBRANCH   1   4
TORSDOF 3
ENDMDL
MODEL 17
REMARK VINA RESULT:      -2.9     11.732     12.498
REMARK  3 active torsions:
REMARK  status: ('A' for Active; 'I' for Inactive)
REMARK    1  A    between atoms: C_2  and  C_3 
REMARK    2  A    between atoms: C_3  and  C_4 
REMARK    3  A    between atoms: C_4  and  O_5 
ROOT
HETATM    1  C   LIG     1      15.730  31.479  14.051  1.00  0.00     0.026 C 
ENDROOT
BRANCH   1   2
HETATM    2  C   LIG     1      14.909  30.239  14.441  1.00  0.00    -0.002 C 
HETATM    3  C   LIG     1      13.783  30.551  15.424  1.00  0.00     0.005 C 
ENDBRANCH   1   2
BRANCH   1   4
HETATM    4  C   LIG     1      16.223  32.290  15.258  1.00  0.00     0.164 C 
BRANCH   4   5
HETATM    5  O   LIG     1      17.622  32.274  15.343  1.00  0.00    -0.401 OA
HETATM    6  H   LIG     1      17.849  31.935  16.248  1.00  0.00     0.209 HD
ENDBRANCH   4   5
ENDBRANCH   1   4
TORSDOF 3
ENDMDL
MODEL 18
REMARK VINA RESULT:      -2.9      4.957      5.440
REMARK  3 active torsions:
REMARK  status: ('A' for Active; 'I' for Inactive)
REMARK    1  A    between atoms: C_2  and  C_3 
REMARK    2  A    between atoms: C_3  and  C_4 
REMARK    3  A    between atoms: C_4  and  O_5 
ROOT
HETATM    1  C   LIG     1      16.968  35.434  21.136  1.00  0.00     0.026 C 
ENDROOT
BRANCH   1   2
HETATM    2  C   LIG     1      16.974  35.317  22.670  1.00  0.00    -0.002 C 
HETATM    3  C   LIG     1      16.916  36.671  23.374  1.00  0.00     0.005 C 
ENDBRANCH   1   2
BRANCH   1   4
HETATM    4  C   LIG     1      15.566  35.316  20.520  1.00  0.00     0.164 C 
BRANCH   4   5
HETATM    5  O   LIG     1      15.625  34.794  19.220  1.00  0.00    -0.401 OA
HETATM    6  H   LIG     1      14.689  34.713  18.902  1.00  0.00     0.209 HD
ENDBRANCH   4   5
ENDBRANCH   1   4
TORSDOF 3
ENDMDL
MODEL 19
REMARK VINA RESULT:      -2.9      4.847      5.605
REMARK  3 active torsions:
REMARK  status: ('A' for Active; 'I' for Inactive)
REMARK    1  A    between atoms: C_2  and  C_3 
REMARK    2  A    between atoms: C_3  and  C_4 
REMARK    3  A    between atoms: C_4  and  O_5 
ROOT
HETATM    1  C   LIG     1      18.114  36.601  20.291  1.00  0.00     0.026 C 
ENDROOT
BRANCH   1   2
HETATM    2  C   LIG     1      18.732  38.008  20.340  1.00  0.00    -0.002 C 
HETATM    3  C   LIG     1      18.189  38.861  21.485  1.00  0.00     0.005 C 
ENDBRANCH   1   2
BRANCH   1   4
HETATM    4  C   LIG     1      17.059  36.359  21.380  1.00  0.00     0.164 C 
BRANCH   4   5
HETATM    5  O   LIG     1      17.247  35.116  22.001  1.00  0.00    -0.401 OA
HETATM    6  H   LIG     1      16.605  34.487  21.581  1.00  0.00     0.209 HD
ENDBRANCH   4   5
ENDBRANCH   1   4
TORSDOF 3
ENDMDL
MODEL 20
REMARK VINA RESULT:      -2.9     11.541     12.432
REMARK  3 active torsions:
REMARK  status: ('A' for Active; 'I' for Inactive)
REMARK    1  A    between atoms: C_2  and  C_3 
REMARK    2  A    between atoms: C_3  and  C_4 
REMARK    3  A    between atoms: C_4  and  O_5 
ROOT
HETATM    1  C   LIG     1      13.095  30.812  16.317  1.00  0.00     0.026 C 
ENDROOT
BRANCH   1   2
HETATM    2  C   LIG     1      13.914  32.017  16.808  1.00  0.00    -0.002 C 
HETATM    3  C   LIG     1      14.447  31.841  18.228  1.00  0.00     0.005 C 
ENDBRANCH   1   2
BRANCH   1   4
HETATM    4  C   LIG     1      13.633  30.197  15.016  1.00  0.00     0.164 C 
BRANCH   4   5
HETATM    5  O   LIG     1      12.744  29.243  14.501  1.00  0.00    -0.401 OA
HETATM    6  H   LIG     1      11.840  29.491  14.826  1.00  0.00     0.209 HD
ENDBRANCH   4   5
ENDBRANCH   1   4
TORSDOF 3
ENDMDL
