MODEL 1
REMARK VINA RESULT:      -5.0      0.000      0.000
REMARK  1 active torsions:
REMARK  status: ('A' for Active; 'I' for Inactive)
REMARK    1  A    between atoms: N_1  and  C_2 
ROOT
HETATM    1  C   LIG     1      18.036  37.204  20.592  1.00  0.00     0.128 A 
HETATM    2  N   LIG     1      19.005  37.737  19.802  1.00  0.00    -0.177 NA
HETATM    3  C   LIG     1      19.560  38.944  20.088  1.00  0.00     0.347 A 
HETATM    4  N   LIG     1      19.146  39.643  21.181  1.00  0.00    -0.317 N 
HETATM    5  C   LIG     1      18.178  39.145  21.997  1.00  0.00     0.096 A 
HETATM    6  C   LIG     1      17.599  37.908  21.718  1.00  0.00     0.067 A 
HETATM    7  O   LIG     1      20.457  39.414  19.339  1.00  0.00    -0.245 OA
HETATM    8  H   LIG     1      19.572  40.571  21.401  1.00  0.00     0.170 HD
ENDROOT
BRANCH   1   9
HETATM    9  N   LIG     1      17.473  35.933  20.267  1.00  0.00    -0.384 N 
HETATM   10  H   LIG     1      16.601  35.863  19.697  1.00  0.00     0.157 HD
HETATM   11  H   LIG     1      17.931  35.055  20.597  1.00  0.00     0.157 HD
ENDBRANCH   1   9
TORSDOF 1
ENDMDL
MODEL 2
REMARK VINA RESULT:      -5.0      4.718      5.191
REMARK  1 active torsions:
REMARK  status: ('A' for Active; 'I' for Inactive)
REMARK    1  A    between atoms: N_1  and  C_2 
ROOT
HETATM    1  C   LIG     1      17.121  35.685  23.957  1.00  0.00     0.128 A 
HETATM    2  N   LIG     1      16.999  37.030  24.109  1.00  0.00    -0.177 NA
HETATM    3  C   LIG     1      17.250  37.628  25.303  1.00  0.00     0.347 A 
HETATM    4  N   LIG     1      17.630  36.878  26.374  1.00  0.00    -0.317 N 
HETATM    5  C   LIG     1      17.762  35.529  26.264  1.00  0.00     0.096 A 
HETATM    6  C   LIG     1      17.510  34.900  25.046  1.00  0.00     0.067 A 
HETATM    7  O   LIG     1      17.130  38.876  25.415  1.00  0.00    -0.245 OA
HETATM    8  H   LIG     1      17.823  37.337  27.292  1.00  0.00     0.170 HD
ENDROOT
BRANCH   1   9
HETATM    9  N   LIG     1      16.852  35.086  22.689  1.00  0.00    -0.384 N 
HETATM   10  H   LIG     1      16.999  34.063  22.537  1.00  0.00     0.157 HD
HETATM   11  H   LIG     1      16.501  35.668  21.897  1.00  0.00     0.157 HD
ENDBRANCH   1   9
TORSDOF 1
ENDMDL
MODEL 3
REMARK VINA RESULT:      -4.9      1.994      3.146
REMARK  1 active torsions:
REMARK  status: ('A' for Active; 'I' for Inactive)
REMARK    1  A    between atoms: N_1  and  C_2 
ROOT
HETATM    1  C   LIG     1      19.529  38.649  19.744  1.00  0.00     0.128 A 
HETATM    2  N   LIG     1      18.916  39.285  20.777  1.00  0.00    -0.177 NA
HETATM    3  C   LIG     1      17.988  38.651  21.542  1.00  0.00     0.347 A 
HETATM    4  N   LIG     1      17.658  37.356  21.279  1.00  0.00    -0.317 N 
HETATM    5  C   LIG     1      18.248  36.685  20.255  1.00  0.00     0.096 A 
HETATM    6  C   LIG     1      19.202  37.320  19.461  1.00  0.00     0.067 A 
HETATM    7  O   LIG     1      17.436  39.265  22.493  1.00  0.00    -0.245 OA
HETATM    8  H   LIG     1      16.945  36.869  21.867  1.00  0.00     0.170 HD
ENDROOT
BRANCH   1   9
HETATM    9  N   LIG     1      20.500  39.341  18.959  1.00  0.00    -0.384 N 
HETATM   10  H   LIG     1      21.509  39.339  19.229  1.00  0.00     0.157 HD
HETATM   11  H   LIG     1      20.209  39.858  18.100  1.00  0.00     0.157 HD
ENDBRANCH   1   9
TORSDOF 1
ENDMDL
MODEL 4
REMARK VINA RESULT:      -4.8      4.176      4.903
REMARK  1 active torsions:
REMARK  status: ('A' for Active; 'I' for Inactive)
REMARK    1  A    between atoms: N_1  and  C_2 
ROOT
HETATM    1  C   LIG     1      17.164  36.685  25.093  1.00  0.00     0.128 A 
HETATM    2  N   LIG     1      16.606  37.804  24.560  1.00  0.00    -0.177 NA
HETATM    3  C   LIG     1      16.184  37.833  23.269  1.00  0.00     0.347 A 
HETATM    4  N   LIG     1      16.316  36.728  22.483  1.00  0.00    -0.317 N 
HETATM    5  C   LIG     1      16.871  35.589  22.978  1.00  0.00     0.096 A 
HETATM    6  C   LIG     1      17.309  35.542  24.301  1.00  0.00     0.067 A 
HETATM    7  O   LIG     1      15.670  38.883  22.802  1.00  0.00    -0.245 OA
HETATM    8  H   LIG     1      15.992  36.749  21.491  1.00  0.00     0.170 HD
ENDROOT
BRANCH   1   9
HETATM    9  N   LIG     1      17.597  36.685  26.453  1.00  0.00    -0.384 N 
HETATM   10  H   LIG     1      17.692  35.792  26.986  1.00  0.00     0.157 HD
HETATM   11  H   LIG     1      17.826  37.584  26.931  1.00  0.00     0.157 HD
ENDBRANCH   1   9
TORSDOF 1
ENDMDL
MODEL 5
REMARK VINA RESULT:      -4.8      2.081      2.895
REMARK  1 active torsions:
REMARK  status: ('A' for Active; 'I' for Inactive)
REMARK    1  A    between atoms: N_1  and  C_2 
ROOT
HETATM    1  C   LIG     1      19.449  38.748  19.863  1.00  0.00     0.128 A 
HETATM    2  N   LIG     1      18.940  37.515  19.606  1.00  0.00    -0.177 NA
HETATM    3  C   LIG     1      18.001  36.959  20.416  1.00  0.00     0.347 A 
HETATM    4  N   LIG     1      17.554  37.639  21.508  1.00  0.00    -0.317 N 
HETATM    5  C   LIG     1      18.038  38.876  21.800  1.00  0.00     0.096 A 
HETATM    6  C   LIG     1      19.001  39.461  20.980  1.00  0.00     0.067 A 
HETATM    7  O   LIG     1      17.547  35.815  20.154  1.00  0.00    -0.245 OA
HETATM    8  H   LIG     1      16.832  37.212  22.130  1.00  0.00     0.170 HD
ENDROOT
BRANCH   1   9
HETATM    9  N   LIG     1      20.434  39.306  18.994  1.00  0.00    -0.384 N 
HETATM   10  H   LIG     1      20.225  40.154  18.420  1.00  0.00     0.157 HD
HETATM   11  H   LIG     1      21.380  38.871  18.923  1.00  0.00     0.157 HD
ENDBRANCH   1   9
TORSDOF 1
ENDMDL
MODEL 6
REMARK VINA RESULT:      -4.7      2.833      3.965
REMARK  1 active torsions:
REMARK  status: ('A' for Active; 'I' for Inactive)
REMARK    1  A    between atoms: N_1  and  C_2 
ROOT
HETATM    1  C   LIG     1      18.115  38.691  21.558  1.00  0.00     0.128 A 
HETATM    2  N   LIG     1      17.368  38.841  22.684  1.00  0.00    -0.177 NA
HETATM    3  C   LIG     1      16.567  37.841  23.134  1.00  0.00     0.347 A 
HETATM    4  N   LIG     1      16.501  36.662  22.456  1.00  0.00    -0.317 N 
HETATM    5  C   LIG     1      17.232  36.472  21.325  1.00  0.00     0.096 A 
HETATM    6  C   LIG     1      18.060  37.487  20.849  1.00  0.00     0.067 A 
HETATM    7  O   LIG     1      15.886  38.008  24.180  1.00  0.00    -0.245 OA
HETATM    8  H   LIG     1      15.885  35.893  22.802  1.00  0.00     0.170 HD
ENDROOT
BRANCH   1   9
HETATM    9  N   LIG     1      18.949  39.759  21.110  1.00  0.00    -0.384 N 
HETATM   10  H   LIG     1      18.730  40.751  21.357  1.00  0.00     0.157 HD
HETATM   11  H   LIG     1      19.792  39.560  20.528  1.00  0.00     0.157 HD
ENDBRANCH   1   9
TORSDOF 1
ENDMDL
MODEL 7
REMARK VINA RESULT:      -4.7      4.439      4.933
REMARK  1 active torsions:
REMARK  status: ('A' for Active; 'I' for Inactive)
REMARK    1  A    between atoms: N_1  and  C_2 
ROOT
HETATM    1  C   LIG     1      17.700  35.919  25.476  1.00  0.00     0.128 A 
HETATM    2  N   LIG     1      17.190  35.843  24.219  1.00  0.00    -0.177 NA
HETATM    3  C   LIG     1      16.769  36.955  23.562  1.00  0.00     0.347 A 
HETATM    4  N   LIG     1      16.851  38.174  24.164  1.00  0.00    -0.317 N 
HETATM    5  C   LIG     1      17.354  38.294  25.422  1.00  0.00     0.096 A 
HETATM    6  C   LIG     1      17.792  37.162  26.109  1.00  0.00     0.067 A 
HETATM    7  O   LIG     1      16.302  36.855  22.397  1.00  0.00    -0.245 OA
HETATM    8  H   LIG     1      16.527  39.029  23.660  1.00  0.00     0.170 HD
ENDROOT
BRANCH   1   9
HETATM    9  N   LIG     1      18.136  34.733  26.140  1.00  0.00    -0.384 N 
HETATM   10  H   LIG     1      19.078  34.325  25.947  1.00  0.00     0.157 HD
HETATM   11  H   LIG     1      17.513  34.258  26.831  1.00  0.00     0.157 HD
ENDBRANCH   1   9
TORSDOF 1
ENDMDL
MODEL 8
REMARK VINA RESULT:      -4.7      1.042      2.250
REMARK  1 active torsions:
REMARK  status: ('A' for Active; 'I' for Inactive)
REMARK    1  A    between atoms: N_1  and  C_2 
ROOT
HETATM    1  C   LIG     1      17.915  38.570  21.590  1.00  0.00     0.128 A 
HETATM    2  N   LIG     1      18.860  39.302  20.942  1.00  0.00    -0.177 NA
HETATM    3  C   LIG     1      19.562  38.780  19.902  1.00  0.00     0.347 A 
HETATM    4  N   LIG     1      19.325  37.503  19.492  1.00  0.00    -0.317 N 
HETATM    5  C   LIG     1      18.390  36.737  20.115  1.00  0.00     0.096 A 
HETATM    6  C   LIG     1      17.660  37.257  21.183  1.00  0.00     0.067 A 
HETATM    7  O   LIG     1      20.430  39.481  19.319  1.00  0.00    -0.245 OA
HETATM    8  H   LIG     1      19.865  37.101  18.693  1.00  0.00     0.170 HD
ENDROOT
BRANCH   1   9
HETATM    9  N   LIG     1      17.193  39.146  22.678  1.00  0.00    -0.384 N 
HETATM   10  H   LIG     1      17.691  39.649  23.447  1.00  0.00     0.157 HD
HETATM   11  H   LIG     1      16.153  39.071  22.717  1.00  0.00     0.157 HD
ENDBRANCH   1   9
TORSDOF 1
ENDMDL
MODEL 9
REMARK VINA RESULT:      -4.6      4.670      5.190
REMARK  1 active torsions:
REMARK  status: ('A' for Active; 'I' for Inactive)
REMARK    1  A    between atoms: N_1  and  C_2 
ROOT
HETATM    1  C   LIG     1      16.998  36.728  23.440  1.00  0.00     0.128 A 
HETATM    2  N   LIG     1      17.223  35.617  24.190  1.00  0.00    -0.177 NA
HETATM    3  C   LIG     1      17.493  35.708  25.518  1.00  0.00     0.347 A 
HETATM    4  N   LIG     1      17.541  36.928  26.122  1.00  0.00    -0.317 N 
HETATM    5  C   LIG     1      17.322  38.064  25.407  1.00  0.00     0.096 A 
HETATM    6  C   LIG     1      17.043  37.988  24.043  1.00  0.00     0.067 A 
HETATM    7  O   LIG     1      17.698  34.662  26.188  1.00  0.00    -0.245 OA
HETATM    8  H   LIG     1      17.748  36.999  27.143  1.00  0.00     0.170 HD
ENDROOT
BRANCH   1   9
HETATM    9  N   LIG     1      16.716  36.600  22.046  1.00  0.00    -0.384 N 
HETATM   10  H   LIG     1      16.166  35.790  21.682  1.00  0.00     0.157 HD
HETATM   11  H   LIG     1      17.058  37.320  21.373  1.00  0.00     0.157 HD
ENDBRANCH   1   9
TORSDOF 1
ENDMDL
MODEL 10
REMARK VINA RESULT:      -4.5      2.880      3.304
REMARK  1 active torsions:
REMARK  status: ('A' for Active; 'I' for Inactive)
REMARK    1  A    between atoms: N_1  and  C_2 
ROOT
HETATM    1  C   LIG     1      17.253  36.781  21.202  1.00  0.00     0.128 A 
HETATM    2  N   LIG     1      16.509  36.875  22.335  1.00  0.00    -0.177 NA
HETATM    3  C   LIG     1      16.647  37.929  23.182  1.00  0.00     0.347 A 
HETATM    4  N   LIG     1      17.544  38.915  22.901  1.00  0.00    -0.317 N 
HETATM    5  C   LIG     1      18.308  38.858  21.778  1.00  0.00     0.096 A 
HETATM    6  C   LIG     1      18.178  37.784  20.898  1.00  0.00     0.067 A 
HETATM    7  O   LIG     1      15.945  37.990  24.225  1.00  0.00    -0.245 OA
HETATM    8  H   LIG     1      17.651  39.725  23.552  1.00  0.00     0.170 HD
ENDROOT
BRANCH   1   9
HETATM    9  N   LIG     1      17.084  35.663  20.331  1.00  0.00    -0.384 N 
HETATM   10  H   LIG     1      16.336  35.658  19.602  1.00  0.00     0.157 HD
HETATM   11  H   LIG     1      17.712  34.833  20.414  1.00  0.00     0.157 HD
ENDBRANCH   1   9
TORSDOF 1
ENDMDL
MODEL 11
REMARK VINA RESULT:      -4.5      3.481      4.350
REMARK  1 active torsions:
REMARK  status: ('A' for Active; 'I' for Inactive)
REMARK    1  A    between atoms: N_1  and  C_2 
ROOT
HETATM    1  C   LIG     1      17.274  38.022  24.126  1.00  0.00     0.128 A 
HETATM    2  N   LIG     1      16.946  36.716  23.939  1.00  0.00    -0.177 NA
HETATM    3  C   LIG     1      16.919  36.170  22.695  1.00  0.00     0.347 A 
HETATM    4  N   LIG     1      17.224  36.932  21.609  1.00  0.00    -0.317 N 
HETATM    5  C   LIG     1      17.556  38.243  21.753  1.00  0.00     0.096 A 
HETATM    6  C   LIG     1      17.589  38.819  23.023  1.00  0.00     0.067 A 
HETATM    7  O   LIG     1      16.612  34.957  22.551  1.00  0.00    -0.245 OA
HETATM    8  H   LIG     1      17.203  36.513  20.653  1.00  0.00     0.170 HD
ENDROOT
BRANCH   1   9
HETATM    9  N   LIG     1      17.295  38.567  25.445  1.00  0.00    -0.384 N 
HETATM   10  H   LIG     1      16.889  38.039  26.251  1.00  0.00     0.157 HD
HETATM   11  H   LIG     1      17.719  39.505  25.620  1.00  0.00     0.157 HD
ENDBRANCH   1   9
TORSDOF 1
ENDMDL
MODEL 12
REMARK VINA RESULT:      -4.5      6.354      7.406
REMARK  1 active torsions:
REMARK  status: ('A' for Active; 'I' for Inactive)
REMARK    1  A    between atoms: N_1  and  C_2 
ROOT
HETATM    1  C   LIG     1      14.107  31.707  17.633  1.00  0.00     0.128 A 
HETATM    2  N   LIG     1      14.365  32.756  16.809  1.00  0.00    -0.177 NA
HETATM    3  C   LIG     1      15.071  33.834  17.243  1.00  0.00     0.347 A 
HETATM    4  N   LIG     1      15.533  33.875  18.523  1.00  0.00    -0.317 N 
HETATM    5  C   LIG     1      15.296  32.845  19.380  1.00  0.00     0.096 A 
HETATM    6  C   LIG     1      14.574  31.732  18.950  1.00  0.00     0.067 A 
HETATM    7  O   LIG     1      15.295  34.792  16.458  1.00  0.00    -0.245 OA
HETATM    8  H   LIG     1      16.075  34.703  18.857  1.00  0.00     0.170 HD
ENDROOT
BRANCH   1   9
HETATM    9  N   LIG     1      13.365  30.588  17.148  1.00  0.00    -0.384 N 
HETATM   10  H   LIG     1      12.588  30.717  16.461  1.00  0.00     0.157 HD
HETATM   11  H   LIG     1      13.592  29.624  17.476  1.00  0.00     0.157 HD
ENDBRANCH   1   9
TORSDOF 1
ENDMDL
MODEL 13
REMARK VINA RESULT:      -4.5      7.367      8.507
REMARK  1 active torsions:
REMARK  status: ('A' for Active; 'I' for Inactive)
REMARK    1  A    between atoms: N_1  and  C_2 
ROOT
HETATM    1  C   LIG     1      15.019  31.485  15.202  1.00  0.00     0.128 A 
HETATM    2  N   LIG     1      15.616  32.693  15.375  1.00  0.00    -0.177 NA
HETATM    3  C   LIG     1      15.276  33.503  16.411  1.00  0.00     0.347 A 
HETATM    4  N   LIG     1      14.321  33.110  17.299  1.00  0.00    -0.317 N 
HETATM    5  C   LIG     1      13.698  31.909  17.160  1.00  0.00     0.096 A 
HETATM    6  C   LIG     1      14.036  31.065  16.103  1.00  0.00     0.067 A 
HETATM    7  O   LIG     1      15.846  34.617  16.547  1.00  0.00    -0.245 OA
HETATM    8  H   LIG     1      14.059  33.733  18.095  1.00  0.00     0.170 HD
ENDROOT
BRANCH   1   9
HETATM    9  N   LIG     1      15.399  30.655  14.104  1.00  0.00    -0.384 N 
HETATM   10  H   LIG     1      16.251  30.868  13.539  1.00  0.00     0.157 HD
HETATM   11  H   LIG     1      14.825  29.819  13.854  1.00  0.00     0.157 HD
ENDBRANCH   1   9
TORSDOF 1
ENDMDL
MODEL 14
REMARK VINA RESULT:      -4.4      7.981      9.081
REMARK  1 active torsions:
REMARK  status: ('A' for Active; 'I' for Inactive)
REMARK    1  A    between atoms: N_1  and  C_2 
ROOT
HETATM    1  C   LIG     1      15.112  30.776  14.600  1.00  0.00     0.128 A 
HETATM    2  N   LIG     1      16.352  31.311  14.447  1.00  0.00    -0.177 NA
HETATM    3  C   LIG     1      16.830  32.241  15.315  1.00  0.00     0.347 A 
HETATM    4  N   LIG     1      16.062  32.654  16.362  1.00  0.00    -0.317 N 
HETATM    5  C   LIG     1      14.815  32.144  16.550  1.00  0.00     0.096 A 
HETATM    6  C   LIG     1      14.311  31.189  15.669  1.00  0.00     0.067 A 
HETATM    7  O   LIG     1      17.982  32.719  15.149  1.00  0.00    -0.245 OA
HETATM    8  H   LIG     1      16.428  33.369  17.029  1.00  0.00     0.170 HD
ENDROOT
BRANCH   1   9
HETATM    9  N   LIG     1      14.639  29.800  13.673  1.00  0.00    -0.384 N 
HETATM   10  H   LIG     1      13.618  29.598  13.581  1.00  0.00     0.157 HD
HETATM   11  H   LIG     1      15.312  29.276  13.072  1.00  0.00     0.157 HD
ENDBRANCH   1   9
TORSDOF 1
ENDMDL
MODEL 15
REMARK VINA RESULT:      -4.4      7.830      9.022
REMARK  1 active torsions:
REMARK  status: ('A' for Active; 'I' for Inactive)
REMARK    1  A    between atoms: N_1  and  C_2 
ROOT
HETATM    1  C   LIG     1      13.626  31.123  16.295  1.00  0.00     0.128 A 
HETATM    2  N   LIG     1      14.014  32.241  16.962  1.00  0.00    -0.177 NA
HETATM    3  C   LIG     1      15.110  32.945  16.575  1.00  0.00     0.347 A 
HETATM    4  N   LIG     1      15.841  32.534  15.502  1.00  0.00    -0.317 N 
HETATM    5  C   LIG     1      15.486  31.419  14.808  1.00  0.00     0.096 A 
HETATM    6  C   LIG     1      14.364  30.686  15.191  1.00  0.00     0.067 A 
HETATM    7  O   LIG     1      15.447  33.978  17.211  1.00  0.00    -0.245 OA
HETATM    8  H   LIG     1      16.683  33.074  15.204  1.00  0.00     0.170 HD
ENDROOT
BRANCH   1   9
HETATM    9  N   LIG     1      12.469  30.404  16.724  1.00  0.00    -0.384 N 
HETATM   10  H   LIG     1      12.072  30.549  17.680  1.00  0.00     0.157 HD
HETATM   11  H   LIG     1      12.005  29.724  16.083  1.00  0.00     0.157 HD
ENDBRANCH   1   9
TORSDOF 1
ENDMDL
MODEL 16
REMARK VINA RESULT:      -4.4      7.431      8.747
REMARK  1 active torsions:
REMARK  status: ('A' for Active; 'I' for Inactive)
REMARK    1  A    between atoms: N_1  and  C_2 
ROOT
HETATM    1  C   LIG     1      15.053  33.273  16.654  1.00  0.00     0.128 A 
HETATM    2  N   LIG     1      15.836  33.071  15.561  1.00  0.00    -0.177 NA
HETATM    3  C   LIG     1      15.709  31.950  14.804  1.00  0.00     0.347 A 
HETATM    4  N   LIG     1      14.786  31.004  15.135  1.00  0.00    -0.317 N 
HETATM    5  C   LIG     1      13.984  31.169  16.221  1.00  0.00     0.096 A 
HETATM    6  C   LIG     1      14.101  32.313  17.008  1.00  0.00     0.067 A 
HETATM    7  O   LIG     1      16.447  31.788  13.797  1.00  0.00    -0.245 OA
HETATM    8  H   LIG     1      14.689  30.142  14.553  1.00  0.00     0.170 HD
ENDROOT
BRANCH   1   9
HETATM    9  N   LIG     1      15.209  34.462  17.429  1.00  0.00    -0.384 N 
HETATM   10  H   LIG     1      16.017  35.104  17.271  1.00  0.00     0.157 HD
HETATM   11  H   LIG     1      14.510  34.704  18.166  1.00  0.00     0.157 HD
ENDBRANCH   1   9
TORSDOF 1
ENDMDL
MODEL 17
REMARK VINA RESULT:      -4.4      9.229     10.370
REMARK  1 active torsions:
REMARK  status: ('A' for Active; 'I' for Inactive)
REMARK    1  A    between atoms: N_1  and  C_2 
ROOT
HETATM    1  C   LIG     1      13.585  29.892  14.632  1.00  0.00     0.128 A 
HETATM    2  N   LIG     1      14.714  30.307  14.000  1.00  0.00    -0.177 NA
HETATM    3  C   LIG     1      15.491  31.293  14.523  1.00  0.00     0.347 A 
HETATM    4  N   LIG     1      15.142  31.883  15.699  1.00  0.00    -0.317 N 
HETATM    5  C   LIG     1      14.020  31.498  16.363  1.00  0.00     0.096 A 
HETATM    6  C   LIG     1      13.212  30.488  15.841  1.00  0.00     0.067 A 
HETATM    7  O   LIG     1      16.532  31.657  13.916  1.00  0.00    -0.245 OA
HETATM    8  H   LIG     1      15.739  32.641  16.101  1.00  0.00     0.170 HD
ENDROOT
BRANCH   1   9
HETATM    9  N   LIG     1      12.790  28.854  14.059  1.00  0.00    -0.384 N 
HETATM   10  H   LIG     1      12.671  27.938  14.547  1.00  0.00     0.157 HD
HETATM   11  H   LIG     1      12.316  29.001  13.141  1.00  0.00     0.157 HD
ENDBRANCH   1   9
TORSDOF 1
ENDMDL
MODEL 18
REMARK VINA RESULT:      -4.4      2.380      3.628
REMARK  1 active torsions:
REMARK  status: ('A' for Active; 'I' for Inactive)
REMARK    1  A    between atoms: N_1  and  C_2 
ROOT
HETATM    1  C   LIG     1      18.541  38.618  21.108  1.00  0.00     0.128 A 
HETATM    2  N   LIG     1      17.650  37.762  21.675  1.00  0.00    -0.177 NA
HETATM    3  C   LIG     1      17.361  36.566  21.098  1.00  0.00     0.347 A 
HETATM    4  N   LIG     1      17.966  36.207  19.932  1.00  0.00    -0.317 N 
HETATM    5  C   LIG     1      18.862  37.035  19.333  1.00  0.00     0.096 A 
HETATM    6  C   LIG     1      19.171  38.266  19.911  1.00  0.00     0.067 A 
HETATM    7  O   LIG     1      16.532  35.792  21.645  1.00  0.00    -0.245 OA
HETATM    8  H   LIG     1      17.743  35.288  19.489  1.00  0.00     0.170 HD
ENDROOT
BRANCH   1   9
HETATM    9  N   LIG     1      18.826  39.867  21.738  1.00  0.00    -0.384 N 
HETATM   10  H   LIG     1      19.303  40.635  21.216  1.00  0.00     0.157 HD
HETATM   11  H   LIG     1      18.556  40.027  22.734  1.00  0.00     0.157 HD
ENDBRANCH   1   9
TORSDOF 1
ENDMDL
MODEL 19
REMARK VINA RESULT:      -4.4      7.428      8.390
REMARK  1 active torsions:
REMARK  status: ('A' for Active; 'I' for Inactive)
REMARK    1  A    between atoms: N_1  and  C_2 
ROOT
HETATM    1  C   LIG     1      15.584  32.592  16.503  1.00  0.00     0.128 A 
HETATM    2  N   LIG     1      15.653  32.774  17.848  1.00  0.00    -0.177 NA
HETATM    3  C   LIG     1      14.790  32.145  18.688  1.00  0.00     0.347 A 
HETATM    4  N   LIG     1      13.834  31.315  18.187  1.00  0.00    -0.317 N 
HETATM    5  C   LIG     1      13.731  31.105  16.847  1.00  0.00     0.096 A 
HETATM    6  C   LIG     1      14.609  31.743  15.971  1.00  0.00     0.067 A 
HETATM    7  O   LIG     1      14.877  32.333  19.930  1.00  0.00    -0.245 OA
HETATM    8  H   LIG     1      13.170  30.831  18.832  1.00  0.00     0.170 HD
ENDROOT
BRANCH   1   9
HETATM    9  N   LIG     1      16.505  33.265  15.646  1.00  0.00    -0.384 N 
HETATM   10  H   LIG     1      17.340  32.770  15.260  1.00  0.00     0.157 HD
HETATM   11  H   LIG     1      16.351  34.266  15.392  1.00  0.00     0.157 HD
ENDBRANCH   1   9
TORSDOF 1
ENDMDL
MODEL 20
REMARK VINA RESULT:      -4.3      9.299     10.270
REMARK  1 active torsions:
REMARK  status: ('A' for Active; 'I' for Inactive)
REMARK    1  A    between atoms: N_1  and  C_2 
ROOT
HETATM    1  C   LIG     1      13.857  31.343  16.333  1.00  0.00     0.128 A 
HETATM    2  N   LIG     1      14.994  31.671  15.663  1.00  0.00    -0.177 NA
HETATM    3  C   LIG     1      15.313  31.074  14.485  1.00  0.00     0.347 A 
HETATM    4  N   LIG     1      14.487  30.129  13.954  1.00  0.00    -0.317 N 
HETATM    5  C   LIG     1      13.341  29.772  14.593  1.00  0.00     0.096 A 
HETATM    6  C   LIG     1      12.999  30.376  15.803  1.00  0.00     0.067 A 
HETATM    7  O   LIG     1      16.372  31.397  13.887  1.00  0.00    -0.245 OA
HETATM    8  H   LIG     1      14.732  29.670  13.049  1.00  0.00     0.170 HD
ENDROOT
BRANCH   1   9
HETATM    9  N   LIG     1      13.548  31.989  17.568  1.00  0.00    -0.384 N 
HETATM   10  H   LIG     1      12.920  32.822  17.596  1.00  0.00     0.157 HD
HETATM   11  H   LIG     1      13.950  31.631  18.463  1.00  0.00     0.157 HD
ENDBRANCH   1   9
TORSDOF 1
ENDMDL
