REMARK  1 active torsions:
REMARK  status: ('A' for Active; 'I' for Inactive)
REMARK    1  A    between atoms: N_1  and  C_2 
ROOT
HETATM    1  C   LIG     1       0.911  -0.269  -0.007  1.00  0.00     0.128 A 
HETATM    2  N   LIG     1       0.077  -1.328   0.166  1.00  0.00    -0.177 NA
HETATM    3  C   LIG     1      -1.271  -1.162   0.206  1.00  0.00     0.347 A 
HETATM    4  N   LIG     1      -1.809   0.082   0.072  1.00  0.00    -0.317 N 
HETATM    5  C   LIG     1      -1.009   1.168  -0.102  1.00  0.00     0.096 A 
HETATM    6  C   LIG     1       0.376   1.015  -0.146  1.00  0.00     0.067 A 
HETATM    7  O   LIG     1      -2.020  -2.161   0.367  1.00  0.00    -0.245 OA
HETATM    8  H   LIG     1      -2.845   0.210   0.103  1.00  0.00     0.170 HD
ENDROOT
BRANCH   1   9
HETATM    9  N   LIG     1       2.323  -0.475  -0.046  1.00  0.00    -0.384 N 
HETATM   10  H   LIG     1       2.979   0.327  -0.178  1.00  0.00     0.157 HD
HETATM   11  H   LIG     1       2.717  -1.436   0.059  1.00  0.00     0.157 HD
ENDBRANCH   1   9
TORSDOF 1
