REMARK  4 active torsions:
REMARK  status: ('A' for Active; 'I' for Inactive)
REMARK    1  A    between atoms: C_2  and  C_3 
REMARK    2  A    between atoms: C_3  and  C_4 
REMARK    3  A    between atoms: C_4  and  C_5 
REMARK    4  A    between atoms: C_5  and  O_6 
ROOT
HETATM    1  C   LIG     1      -0.879   0.554   0.595  1.00  0.00     0.026 C 
ENDROOT
BRANCH   1   2
HETATM    2  C   LIG     1       0.284  -0.246   1.207  1.00  0.00     0.002 C 
BRANCH   2   3
HETATM    3  C   LIG     1       1.348  -0.714   0.198  1.00  0.00    -0.004 C 
HETATM    4  C   LIG     1       2.064   0.445  -0.495  1.00  0.00     0.005 C 
ENDBRANCH   2   3
ENDBRANCH   1   2
BRANCH   1   5
HETATM    5  C   LIG     1      -1.712  -0.266  -0.398  1.00  0.00     0.164 C 
BRANCH   5   6
HETATM    6  O   LIG     1      -2.842   0.462  -0.795  1.00  0.00    -0.401 OA
HETATM    7  H   LIG     1      -3.498   0.398  -0.052  1.00  0.00     0.209 HD
ENDBRANCH   5   6
ENDBRANCH   1   5
TORSDOF 4
