MODEL 1
REMARK VINA RESULT:      -5.3      0.000      0.000
REMARK  0 active torsions:
REMARK  status: ('A' for Active; 'I' for Inactive)
ROOT
HETATM    1  C   LIG     1      18.491  36.006  26.775  1.00  0.00     0.000 A 
HETATM    2  C   LIG     1      17.983  34.841  26.190  1.00  0.00     0.000 A 
HETATM    3  C   LIG     1      17.321  34.906  24.960  1.00  0.00     0.000 A 
HETATM    4  C   LIG     1      17.166  36.138  24.314  1.00  0.00     0.000 A 
HETATM    5  C   LIG     1      17.673  37.303  24.899  1.00  0.00     0.000 A 
HETATM    6  C   LIG     1      18.335  37.238  26.129  1.00  0.00     0.000 A 
ENDROOT
TORSDOF 0
ENDMDL
MODEL 2
REMARK VINA RESULT:      -5.2      0.377      1.983
REMARK  0 active torsions:
REMARK  status: ('A' for Active; 'I' for Inactive)
ROOT
HETATM    1  C   LIG     1      17.760  34.768  25.799  1.00  0.00     0.000 A 
HETATM    2  C   LIG     1      18.352  35.712  26.646  1.00  0.00     0.000 A 
HETATM    3  C   LIG     1      18.373  37.063  26.283  1.00  0.00     0.000 A 
HETATM    4  C   LIG     1      17.801  37.471  25.073  1.00  0.00     0.000 A 
HETATM    5  C   LIG     1      17.209  36.528  24.226  1.00  0.00     0.000 A 
HETATM    6  C   LIG     1      17.188  35.177  24.589  1.00  0.00     0.000 A 
ENDROOT
TORSDOF 0
ENDMDL
MODEL 3
REMARK VINA RESULT:      -5.2      0.578      1.982
REMARK  0 active torsions:
REMARK  status: ('A' for Active; 'I' for Inactive)
ROOT
HETATM    1  C   LIG     1      17.894  37.512  25.268  1.00  0.00     0.000 A 
HETATM    2  C   LIG     1      17.225  36.738  24.313  1.00  0.00     0.000 A 
HETATM    3  C   LIG     1      17.109  35.356  24.488  1.00  0.00     0.000 A 
HETATM    4  C   LIG     1      17.662  34.745  25.619  1.00  0.00     0.000 A 
HETATM    5  C   LIG     1      18.332  35.519  26.574  1.00  0.00     0.000 A 
HETATM    6  C   LIG     1      18.448  36.901  26.399  1.00  0.00     0.000 A 
ENDROOT
TORSDOF 0
ENDMDL
MODEL 4
REMARK VINA RESULT:      -4.9      4.669      5.631
REMARK  0 active torsions:
REMARK  status: ('A' for Active; 'I' for Inactive)
ROOT
HETATM    1  C   LIG     1      18.202  38.863  21.398  1.00  0.00     0.000 A 
HETATM    2  C   LIG     1      17.653  37.577  21.356  1.00  0.00     0.000 A 
HETATM    3  C   LIG     1      18.106  36.652  20.410  1.00  0.00     0.000 A 
HETATM    4  C   LIG     1      19.110  37.013  19.504  1.00  0.00     0.000 A 
HETATM    5  C   LIG     1      19.659  38.299  19.545  1.00  0.00     0.000 A 
HETATM    6  C   LIG     1      19.206  39.224  20.491  1.00  0.00     0.000 A 
ENDROOT
TORSDOF 0
ENDMDL
MODEL 5
REMARK VINA RESULT:      -4.9      4.610      5.849
REMARK  0 active torsions:
REMARK  status: ('A' for Active; 'I' for Inactive)
ROOT
HETATM    1  C   LIG     1      18.023  36.705  20.563  1.00  0.00     0.000 A 
HETATM    2  C   LIG     1      17.668  37.708  21.471  1.00  0.00     0.000 A 
HETATM    3  C   LIG     1      18.293  38.958  21.413  1.00  0.00     0.000 A 
HETATM    4  C   LIG     1      19.273  39.206  20.445  1.00  0.00     0.000 A 
HETATM    5  C   LIG     1      19.628  38.202  19.537  1.00  0.00     0.000 A 
HETATM    6  C   LIG     1      19.004  36.952  19.595  1.00  0.00     0.000 A 
ENDROOT
TORSDOF 0
ENDMDL
MODEL 6
REMARK VINA RESULT:      -4.9      4.659      6.026
REMARK  0 active torsions:
REMARK  status: ('A' for Active; 'I' for Inactive)
ROOT
HETATM    1  C   LIG     1      19.093  36.974  19.506  1.00  0.00     0.000 A 
HETATM    2  C   LIG     1      19.675  38.246  19.527  1.00  0.00     0.000 A 
HETATM    3  C   LIG     1      19.258  39.192  20.469  1.00  0.00     0.000 A 
HETATM    4  C   LIG     1      18.258  38.866  21.393  1.00  0.00     0.000 A 
HETATM    5  C   LIG     1      17.676  37.593  21.372  1.00  0.00     0.000 A 
HETATM    6  C   LIG     1      18.093  36.648  20.430  1.00  0.00     0.000 A 
ENDROOT
TORSDOF 0
ENDMDL
MODEL 7
REMARK VINA RESULT:      -4.9      4.649      5.728
REMARK  0 active torsions:
REMARK  status: ('A' for Active; 'I' for Inactive)
ROOT
HETATM    1  C   LIG     1      19.660  38.300  19.526  1.00  0.00     0.000 A 
HETATM    2  C   LIG     1      19.124  37.008  19.488  1.00  0.00     0.000 A 
HETATM    3  C   LIG     1      18.139  36.631  20.408  1.00  0.00     0.000 A 
HETATM    4  C   LIG     1      17.691  37.547  21.366  1.00  0.00     0.000 A 
HETATM    5  C   LIG     1      18.227  38.839  21.404  1.00  0.00     0.000 A 
HETATM    6  C   LIG     1      19.211  39.215  20.484  1.00  0.00     0.000 A 
ENDROOT
TORSDOF 0
ENDMDL
MODEL 8
REMARK VINA RESULT:      -4.8      4.622      5.791
REMARK  0 active torsions:
REMARK  status: ('A' for Active; 'I' for Inactive)
ROOT
HETATM    1  C   LIG     1      18.032  36.719  20.560  1.00  0.00     0.000 A 
HETATM    2  C   LIG     1      19.011  36.961  19.590  1.00  0.00     0.000 A 
HETATM    3  C   LIG     1      19.638  38.209  19.524  1.00  0.00     0.000 A 
HETATM    4  C   LIG     1      19.287  39.217  20.430  1.00  0.00     0.000 A 
HETATM    5  C   LIG     1      18.308  38.975  21.400  1.00  0.00     0.000 A 
HETATM    6  C   LIG     1      17.680  37.727  21.465  1.00  0.00     0.000 A 
ENDROOT
TORSDOF 0
ENDMDL
MODEL 9
REMARK VINA RESULT:      -4.8      4.624      5.756
REMARK  0 active torsions:
REMARK  status: ('A' for Active; 'I' for Inactive)
ROOT
HETATM    1  C   LIG     1      18.876  39.347  20.855  1.00  0.00     0.000 A 
HETATM    2  C   LIG     1      19.518  38.721  19.781  1.00  0.00     0.000 A 
HETATM    3  C   LIG     1      19.213  37.394  19.460  1.00  0.00     0.000 A 
HETATM    4  C   LIG     1      18.266  36.692  20.215  1.00  0.00     0.000 A 
HETATM    5  C   LIG     1      17.624  37.318  21.289  1.00  0.00     0.000 A 
HETATM    6  C   LIG     1      17.929  38.645  21.609  1.00  0.00     0.000 A 
ENDROOT
TORSDOF 0
ENDMDL
MODEL 10
REMARK VINA RESULT:      -4.2     10.503     11.782
REMARK  0 active torsions:
REMARK  status: ('A' for Active; 'I' for Inactive)
ROOT
HETATM    1  C   LIG     1      13.655  31.724  16.845  1.00  0.00     0.000 A 
HETATM    2  C   LIG     1      14.878  32.188  16.349  1.00  0.00     0.000 A 
HETATM    3  C   LIG     1      15.422  31.627  15.189  1.00  0.00     0.000 A 
HETATM    4  C   LIG     1      14.743  30.599  14.524  1.00  0.00     0.000 A 
HETATM    5  C   LIG     1      13.519  30.135  15.020  1.00  0.00     0.000 A 
HETATM    6  C   LIG     1      12.975  30.697  16.180  1.00  0.00     0.000 A 
ENDROOT
TORSDOF 0
ENDMDL
MODEL 11
REMARK VINA RESULT:      -4.2     10.471     11.851
REMARK  0 active torsions:
REMARK  status: ('A' for Active; 'I' for Inactive)
ROOT
HETATM    1  C   LIG     1      14.916  30.672  14.515  1.00  0.00     0.000 A 
HETATM    2  C   LIG     1      15.512  31.722  15.221  1.00  0.00     0.000 A 
HETATM    3  C   LIG     1      14.891  32.238  16.364  1.00  0.00     0.000 A 
HETATM    4  C   LIG     1      13.674  31.704  16.801  1.00  0.00     0.000 A 
HETATM    5  C   LIG     1      13.078  30.653  16.094  1.00  0.00     0.000 A 
HETATM    6  C   LIG     1      13.698  30.137  14.951  1.00  0.00     0.000 A 
ENDROOT
TORSDOF 0
ENDMDL
MODEL 12
REMARK VINA RESULT:      -4.2      3.426      4.471
REMARK  0 active torsions:
REMARK  status: ('A' for Active; 'I' for Inactive)
ROOT
HETATM    1  C   LIG     1      17.798  36.684  20.814  1.00  0.00     0.000 A 
HETATM    2  C   LIG     1      16.998  36.343  21.911  1.00  0.00     0.000 A 
HETATM    3  C   LIG     1      16.712  37.297  22.893  1.00  0.00     0.000 A 
HETATM    4  C   LIG     1      17.225  38.595  22.778  1.00  0.00     0.000 A 
HETATM    5  C   LIG     1      18.024  38.936  21.681  1.00  0.00     0.000 A 
HETATM    6  C   LIG     1      18.310  37.982  20.700  1.00  0.00     0.000 A 
ENDROOT
TORSDOF 0
ENDMDL
MODEL 13
REMARK VINA RESULT:      -4.2      1.888      3.259
REMARK  0 active torsions:
REMARK  status: ('A' for Active; 'I' for Inactive)
ROOT
HETATM    1  C   LIG     1      17.081  36.469  21.638  1.00  0.00     0.000 A 
HETATM    2  C   LIG     1      17.026  35.238  22.301  1.00  0.00     0.000 A 
HETATM    3  C   LIG     1      17.084  35.192  23.698  1.00  0.00     0.000 A 
HETATM    4  C   LIG     1      17.198  36.378  24.432  1.00  0.00     0.000 A 
HETATM    5  C   LIG     1      17.253  37.608  23.769  1.00  0.00     0.000 A 
HETATM    6  C   LIG     1      17.195  37.654  22.372  1.00  0.00     0.000 A 
ENDROOT
TORSDOF 0
ENDMDL
MODEL 14
REMARK VINA RESULT:      -4.1      2.701      3.717
REMARK  0 active torsions:
REMARK  status: ('A' for Active; 'I' for Inactive)
ROOT
HETATM    1  C   LIG     1      16.856  35.834  23.133  1.00  0.00     0.000 A 
HETATM    2  C   LIG     1      17.098  35.354  21.841  1.00  0.00     0.000 A 
HETATM    3  C   LIG     1      17.541  36.225  20.841  1.00  0.00     0.000 A 
HETATM    4  C   LIG     1      17.745  37.579  21.133  1.00  0.00     0.000 A 
HETATM    5  C   LIG     1      17.503  38.059  22.425  1.00  0.00     0.000 A 
HETATM    6  C   LIG     1      17.059  37.188  23.424  1.00  0.00     0.000 A 
ENDROOT
TORSDOF 0
ENDMDL
MODEL 15
REMARK VINA RESULT:      -4.1     10.564     11.919
REMARK  0 active torsions:
REMARK  status: ('A' for Active; 'I' for Inactive)
ROOT
HETATM    1  C   LIG     1      14.162  30.137  14.596  1.00  0.00     0.000 A 
HETATM    2  C   LIG     1      15.319  30.915  14.486  1.00  0.00     0.000 A 
HETATM    3  C   LIG     1      15.575  31.926  15.418  1.00  0.00     0.000 A 
HETATM    4  C   LIG     1      14.671  32.161  16.461  1.00  0.00     0.000 A 
HETATM    5  C   LIG     1      13.514  31.382  16.571  1.00  0.00     0.000 A 
HETATM    6  C   LIG     1      13.258  30.371  15.639  1.00  0.00     0.000 A 
ENDROOT
TORSDOF 0
ENDMDL
MODEL 16
REMARK VINA RESULT:      -4.1      2.582      4.265
REMARK  0 active torsions:
REMARK  status: ('A' for Active; 'I' for Inactive)
ROOT
HETATM    1  C   LIG     1      17.855  38.001  21.295  1.00  0.00     0.000 A 
HETATM    2  C   LIG     1      18.003  38.786  22.443  1.00  0.00     0.000 A 
HETATM    3  C   LIG     1      17.579  38.300  23.684  1.00  0.00     0.000 A 
HETATM    4  C   LIG     1      17.006  37.026  23.777  1.00  0.00     0.000 A 
HETATM    5  C   LIG     1      16.858  36.240  22.628  1.00  0.00     0.000 A 
HETATM    6  C   LIG     1      17.283  36.727  21.388  1.00  0.00     0.000 A 
ENDROOT
TORSDOF 0
ENDMDL
MODEL 17
REMARK VINA RESULT:      -4.0      4.009      4.864
REMARK  0 active torsions:
REMARK  status: ('A' for Active; 'I' for Inactive)
ROOT
HETATM    1  C   LIG     1      16.383  35.975  21.510  1.00  0.00     0.000 A 
HETATM    2  C   LIG     1      16.185  37.117  22.294  1.00  0.00     0.000 A 
HETATM    3  C   LIG     1      17.049  38.209  22.170  1.00  0.00     0.000 A 
HETATM    4  C   LIG     1      18.112  38.161  21.261  1.00  0.00     0.000 A 
HETATM    5  C   LIG     1      18.310  37.020  20.477  1.00  0.00     0.000 A 
HETATM    6  C   LIG     1      17.446  35.927  20.601  1.00  0.00     0.000 A 
ENDROOT
TORSDOF 0
ENDMDL
MODEL 18
REMARK VINA RESULT:      -3.3     15.905     16.362
REMARK  0 active torsions:
REMARK  status: ('A' for Active; 'I' for Inactive)
ROOT
HETATM    1  C   LIG     1      19.572  22.998  34.975  1.00  0.00     0.000 A 
HETATM    2  C   LIG     1      20.068  23.509  36.179  1.00  0.00     0.000 A 
HETATM    3  C   LIG     1      21.417  23.863  36.287  1.00  0.00     0.000 A 
HETATM    4  C   LIG     1      22.271  23.706  35.190  1.00  0.00     0.000 A 
HETATM    5  C   LIG     1      21.775  23.195  33.985  1.00  0.00     0.000 A 
HETATM    6  C   LIG     1      20.427  22.840  33.878  1.00  0.00     0.000 A 
ENDROOT
TORSDOF 0
ENDMDL
