REMARK  0 active torsions:
REMARK  status: ('A' for Active; 'I' for Inactive)
ROOT
HETATM    1  C   LIG     1      -1.248   0.632   0.037  1.00  0.00     0.000 A 
HETATM    2  C   LIG     1      -1.171  -0.765   0.012  1.00  0.00     0.000 A 
HETATM    3  C   LIG     1       0.076  -1.397  -0.025  1.00  0.00     0.000 A 
HETATM    4  C   LIG     1       1.248  -0.632  -0.037  1.00  0.00     0.000 A 
HETATM    5  C   LIG     1       1.171   0.765  -0.012  1.00  0.00     0.000 A 
HETATM    6  C   LIG     1      -0.076   1.397   0.025  1.00  0.00     0.000 A 
ENDROOT
TORSDOF 0
