REMARK  0 active torsions:
REMARK  status: ('A' for Active; 'I' for Inactive)
ROOT
HETATM    1  C   LIG     1      -0.835  -0.097   0.100  1.00  0.00     0.068 C 
HETATM    2  C   LIG     1       0.669   0.078  -0.080  1.00  0.00     0.184 C 
HETATM    3 CL   LIG     1       1.400  -1.459  -0.606  1.00  0.00    -0.084 Cl
HETATM    4 CL   LIG     1       0.994   1.325  -1.309  1.00  0.00    -0.084 Cl
HETATM    5 CL   LIG     1       1.411   0.575   1.461  1.00  0.00    -0.084 Cl
ENDROOT
TORSDOF 0
