MODEL 1
REMARK VINA RESULT:      -3.4      0.000      0.000
REMARK  0 active torsions:
REMARK  status: ('A' for Active; 'I' for Inactive)
ROOT
HETATM    1  C   LIG     1      16.467  37.693  22.604  1.00  0.00     0.068 C 
HETATM    2  C   LIG     1      16.531  36.307  21.971  1.00  0.00     0.184 C 
HETATM    3 CL   LIG     1      17.052  35.110  23.183  1.00  0.00    -0.084 Cl
HETATM    4 CL   LIG     1      14.926  35.846  21.354  1.00  0.00    -0.084 Cl
HETATM    5 CL   LIG     1      17.693  36.310  20.621  1.00  0.00    -0.084 Cl
ENDROOT
TORSDOF 0
ENDMDL
MODEL 2
REMARK VINA RESULT:      -3.4      1.470      2.138
REMARK  0 active torsions:
REMARK  status: ('A' for Active; 'I' for Inactive)
ROOT
HETATM    1  C   LIG     1      17.527  36.286  20.798  1.00  0.00     0.068 C 
HETATM    2  C   LIG     1      16.512  36.284  21.937  1.00  0.00     0.184 C 
HETATM    3 CL   LIG     1      17.038  35.161  23.216  1.00  0.00    -0.084 Cl
HETATM    4 CL   LIG     1      16.367  37.920  22.625  1.00  0.00    -0.084 Cl
HETATM    5 CL   LIG     1      14.920  35.767  21.330  1.00  0.00    -0.084 Cl
ENDROOT
TORSDOF 0
ENDMDL
MODEL 3
REMARK VINA RESULT:      -3.4      1.464      2.511
REMARK  0 active torsions:
REMARK  status: ('A' for Active; 'I' for Inactive)
ROOT
HETATM    1  C   LIG     1      17.516  36.272  20.781  1.00  0.00     0.068 C 
HETATM    2  C   LIG     1      16.512  36.284  21.929  1.00  0.00     0.184 C 
HETATM    3 CL   LIG     1      14.910  35.778  21.338  1.00  0.00    -0.084 Cl
HETATM    4 CL   LIG     1      17.038  35.165  23.210  1.00  0.00    -0.084 Cl
HETATM    5 CL   LIG     1      16.388  37.926  22.608  1.00  0.00    -0.084 Cl
ENDROOT
TORSDOF 0
ENDMDL
MODEL 4
REMARK VINA RESULT:      -3.4      0.080      2.239
REMARK  0 active torsions:
REMARK  status: ('A' for Active; 'I' for Inactive)
ROOT
HETATM    1  C   LIG     1      16.355  37.656  22.623  1.00  0.00     0.068 C 
HETATM    2  C   LIG     1      16.505  36.283  21.978  1.00  0.00     0.184 C 
HETATM    3 CL   LIG     1      17.710  36.355  20.669  1.00  0.00    -0.084 Cl
HETATM    4 CL   LIG     1      17.040  35.096  23.193  1.00  0.00    -0.084 Cl
HETATM    5 CL   LIG     1      14.944  35.756  21.301  1.00  0.00    -0.084 Cl
ENDROOT
TORSDOF 0
ENDMDL
MODEL 5
REMARK VINA RESULT:      -3.4      3.679      4.635
REMARK  0 active torsions:
REMARK  status: ('A' for Active; 'I' for Inactive)
ROOT
HETATM    1  C   LIG     1      18.637  39.353  20.513  1.00  0.00     0.068 C 
HETATM    2  C   LIG     1      19.209  38.529  19.365  1.00  0.00     0.184 C 
HETATM    3 CL   LIG     1      20.988  38.516  19.455  1.00  0.00    -0.084 Cl
HETATM    4 CL   LIG     1      18.611  36.855  19.460  1.00  0.00    -0.084 Cl
HETATM    5 CL   LIG     1      18.714  39.235  17.806  1.00  0.00    -0.084 Cl
ENDROOT
TORSDOF 0
ENDMDL
MODEL 6
REMARK VINA RESULT:      -3.4      3.692      4.609
REMARK  0 active torsions:
REMARK  status: ('A' for Active; 'I' for Inactive)
ROOT
HETATM    1  C   LIG     1      18.639  39.349  20.496  1.00  0.00     0.068 C 
HETATM    2  C   LIG     1      19.219  38.528  19.350  1.00  0.00     0.184 C 
HETATM    3 CL   LIG     1      18.626  36.851  19.445  1.00  0.00    -0.084 Cl
HETATM    4 CL   LIG     1      18.729  39.229  17.789  1.00  0.00    -0.084 Cl
HETATM    5 CL   LIG     1      20.998  38.519  19.449  1.00  0.00    -0.084 Cl
ENDROOT
TORSDOF 0
ENDMDL
MODEL 7
REMARK VINA RESULT:      -3.4      1.470      2.144
REMARK  0 active torsions:
REMARK  status: ('A' for Active; 'I' for Inactive)
ROOT
HETATM    1  C   LIG     1      17.499  36.433  20.891  1.00  0.00     0.068 C 
HETATM    2  C   LIG     1      16.464  36.327  22.005  1.00  0.00     0.184 C 
HETATM    3 CL   LIG     1      16.228  37.921  22.766  1.00  0.00    -0.084 Cl
HETATM    4 CL   LIG     1      14.910  35.765  21.342  1.00  0.00    -0.084 Cl
HETATM    5 CL   LIG     1      17.019  35.172  23.242  1.00  0.00    -0.084 Cl
ENDROOT
TORSDOF 0
ENDMDL
MODEL 8
REMARK VINA RESULT:      -3.4      4.244      5.026
REMARK  0 active torsions:
REMARK  status: ('A' for Active; 'I' for Inactive)
ROOT
HETATM    1  C   LIG     1      18.750  36.983  19.339  1.00  0.00     0.068 C 
HETATM    2  C   LIG     1      19.207  38.438  19.304  1.00  0.00     0.184 C 
HETATM    3 CL   LIG     1      18.733  39.186  17.759  1.00  0.00    -0.084 Cl
HETATM    4 CL   LIG     1      18.457  39.344  20.641  1.00  0.00    -0.084 Cl
HETATM    5 CL   LIG     1      20.979  38.521  19.469  1.00  0.00    -0.084 Cl
ENDROOT
TORSDOF 0
ENDMDL
MODEL 9
REMARK VINA RESULT:      -3.4      4.019      5.065
REMARK  0 active torsions:
REMARK  status: ('A' for Active; 'I' for Inactive)
ROOT
HETATM    1  C   LIG     1      20.785  38.574  19.426  1.00  0.00     0.068 C 
HETATM    2  C   LIG     1      19.265  38.540  19.311  1.00  0.00     0.184 C 
HETATM    3 CL   LIG     1      18.759  39.248  17.757  1.00  0.00    -0.084 Cl
HETATM    4 CL   LIG     1      18.686  36.858  19.397  1.00  0.00    -0.084 Cl
HETATM    5 CL   LIG     1      18.534  39.474  20.639  1.00  0.00    -0.084 Cl
ENDROOT
TORSDOF 0
ENDMDL
MODEL 10
REMARK VINA RESULT:      -3.4      4.024      4.744
REMARK  0 active torsions:
REMARK  status: ('A' for Active; 'I' for Inactive)
ROOT
HETATM    1  C   LIG     1      20.750  38.611  19.442  1.00  0.00     0.068 C 
HETATM    2  C   LIG     1      19.232  38.537  19.315  1.00  0.00     0.184 C 
HETATM    3 CL   LIG     1      18.701  36.837  19.357  1.00  0.00    -0.084 Cl
HETATM    4 CL   LIG     1      18.465  39.418  20.659  1.00  0.00    -0.084 Cl
HETATM    5 CL   LIG     1      18.716  39.267  17.774  1.00  0.00    -0.084 Cl
ENDROOT
TORSDOF 0
ENDMDL
MODEL 11
REMARK VINA RESULT:      -3.4      1.486      2.152
REMARK  0 active torsions:
REMARK  status: ('A' for Active; 'I' for Inactive)
ROOT
HETATM    1  C   LIG     1      16.980  35.262  22.966  1.00  0.00     0.068 C 
HETATM    2  C   LIG     1      16.507  36.254  21.908  1.00  0.00     0.184 C 
HETATM    3 CL   LIG     1      17.664  36.293  20.554  1.00  0.00    -0.084 Cl
HETATM    4 CL   LIG     1      14.908  35.771  21.292  1.00  0.00    -0.084 Cl
HETATM    5 CL   LIG     1      16.388  37.884  22.615  1.00  0.00    -0.084 Cl
ENDROOT
TORSDOF 0
ENDMDL
MODEL 12
REMARK VINA RESULT:      -3.4      1.481      2.140
REMARK  0 active torsions:
REMARK  status: ('A' for Active; 'I' for Inactive)
ROOT
HETATM    1  C   LIG     1      16.974  35.237  22.958  1.00  0.00     0.068 C 
HETATM    2  C   LIG     1      16.501  36.237  21.909  1.00  0.00     0.184 C 
HETATM    3 CL   LIG     1      14.896  35.764  21.299  1.00  0.00    -0.084 Cl
HETATM    4 CL   LIG     1      16.392  37.864  22.625  1.00  0.00    -0.084 Cl
HETATM    5 CL   LIG     1      17.649  36.278  20.548  1.00  0.00    -0.084 Cl
ENDROOT
TORSDOF 0
ENDMDL
MODEL 13
REMARK VINA RESULT:      -3.3      1.680      2.535
REMARK  0 active torsions:
REMARK  status: ('A' for Active; 'I' for Inactive)
ROOT
HETATM    1  C   LIG     1      15.500  37.703  22.850  1.00  0.00     0.068 C 
HETATM    2  C   LIG     1      16.947  37.226  22.900  1.00  0.00     0.184 C 
HETATM    3 CL   LIG     1      17.001  35.446  22.871  1.00  0.00    -0.084 Cl
HETATM    4 CL   LIG     1      17.844  37.856  21.496  1.00  0.00    -0.084 Cl
HETATM    5 CL   LIG     1      17.726  37.805  24.393  1.00  0.00    -0.084 Cl
ENDROOT
TORSDOF 0
ENDMDL
MODEL 14
REMARK VINA RESULT:      -3.3      1.680      2.686
REMARK  0 active torsions:
REMARK  status: ('A' for Active; 'I' for Inactive)
ROOT
HETATM    1  C   LIG     1      17.496  37.764  24.315  1.00  0.00     0.068 C 
HETATM    2  C   LIG     1      16.945  37.240  22.994  1.00  0.00     0.184 C 
HETATM    3 CL   LIG     1      15.243  37.733  22.808  1.00  0.00    -0.084 Cl
HETATM    4 CL   LIG     1      17.891  37.898  21.636  1.00  0.00    -0.084 Cl
HETATM    5 CL   LIG     1      17.040  35.462  22.959  1.00  0.00    -0.084 Cl
ENDROOT
TORSDOF 0
ENDMDL
MODEL 15
REMARK VINA RESULT:      -3.1      2.569      3.263
REMARK  0 active torsions:
REMARK  status: ('A' for Active; 'I' for Inactive)
ROOT
HETATM    1  C   LIG     1      18.419  39.107  21.639  1.00  0.00     0.068 C 
HETATM    2  C   LIG     1      17.456  38.268  22.472  1.00  0.00     0.184 C 
HETATM    3 CL   LIG     1      17.307  36.638  21.768  1.00  0.00    -0.084 Cl
HETATM    4 CL   LIG     1      18.060  38.125  24.141  1.00  0.00    -0.084 Cl
HETATM    5 CL   LIG     1      15.849  39.036  22.500  1.00  0.00    -0.084 Cl
ENDROOT
TORSDOF 0
ENDMDL
MODEL 16
REMARK VINA RESULT:      -3.0      2.168      2.511
REMARK  0 active torsions:
REMARK  status: ('A' for Active; 'I' for Inactive)
ROOT
HETATM    1  C   LIG     1      15.987  38.775  22.582  1.00  0.00     0.068 C 
HETATM    2  C   LIG     1      17.368  38.129  22.546  1.00  0.00     0.184 C 
HETATM    3 CL   LIG     1      17.978  37.910  24.205  1.00  0.00    -0.084 Cl
HETATM    4 CL   LIG     1      17.277  36.540  21.747  1.00  0.00    -0.084 Cl
HETATM    5 CL   LIG     1      18.501  39.167  21.645  1.00  0.00    -0.084 Cl
ENDROOT
TORSDOF 0
ENDMDL
MODEL 17
REMARK VINA RESULT:      -3.0      2.448      2.724
REMARK  0 active torsions:
REMARK  status: ('A' for Active; 'I' for Inactive)
ROOT
HETATM    1  C   LIG     1      17.869  38.123  23.963  1.00  0.00     0.068 C 
HETATM    2  C   LIG     1      17.393  38.301  22.525  1.00  0.00     0.184 C 
HETATM    3 CL   LIG     1      17.325  36.720  21.707  1.00  0.00    -0.084 Cl
HETATM    4 CL   LIG     1      15.769  39.033  22.508  1.00  0.00    -0.084 Cl
HETATM    5 CL   LIG     1      18.516  39.363  21.641  1.00  0.00    -0.084 Cl
ENDROOT
TORSDOF 0
ENDMDL
MODEL 18
REMARK VINA RESULT:      -2.8     10.906     11.924
REMARK  0 active torsions:
REMARK  status: ('A' for Active; 'I' for Inactive)
ROOT
HETATM    1  C   LIG     1      21.474  34.457  12.642  1.00  0.00     0.068 C 
HETATM    2  C   LIG     1      20.774  34.249  11.303  1.00  0.00     0.184 C 
HETATM    3 CL   LIG     1      21.373  35.434  10.115  1.00  0.00    -0.084 Cl
HETATM    4 CL   LIG     1      21.097  32.606  10.697  1.00  0.00    -0.084 Cl
HETATM    5 CL   LIG     1      19.017  34.461  11.498  1.00  0.00    -0.084 Cl
ENDROOT
TORSDOF 0
ENDMDL
MODEL 19
REMARK VINA RESULT:      -2.8     10.913     11.868
REMARK  0 active torsions:
REMARK  status: ('A' for Active; 'I' for Inactive)
ROOT
HETATM    1  C   LIG     1      21.475  34.456  12.639  1.00  0.00     0.068 C 
HETATM    2  C   LIG     1      20.780  34.250  11.298  1.00  0.00     0.184 C 
HETATM    3 CL   LIG     1      19.021  34.459  11.489  1.00  0.00    -0.084 Cl
HETATM    4 CL   LIG     1      21.379  35.437  10.113  1.00  0.00    -0.084 Cl
HETATM    5 CL   LIG     1      21.106  32.608  10.690  1.00  0.00    -0.084 Cl
ENDROOT
TORSDOF 0
ENDMDL
MODEL 20
REMARK VINA RESULT:      -2.8     11.102     11.674
REMARK  0 active torsions:
REMARK  status: ('A' for Active; 'I' for Inactive)
ROOT
HETATM    1  C   LIG     1      21.043  35.172  10.156  1.00  0.00     0.068 C 
HETATM    2  C   LIG     1      20.701  34.226  11.302  1.00  0.00     0.184 C 
HETATM    3 CL   LIG     1      21.670  34.637  12.738  1.00  0.00    -0.084 Cl
HETATM    4 CL   LIG     1      18.973  34.364  11.709  1.00  0.00    -0.084 Cl
HETATM    5 CL   LIG     1      21.052  32.545  10.827  1.00  0.00    -0.084 Cl
ENDROOT
TORSDOF 0
ENDMDL
