REMARK  5 active torsions:
REMARK  status: ('A' for Active; 'I' for Inactive)
REMARK    1  A    between atoms: N_1  and  CA_2 
REMARK    2  A    between atoms: CA_2  and  CB_6 
REMARK    3  A    between atoms: CA_2  and  C_3 
REMARK    4  A    between atoms: C_3  and  O_4 
REMARK    5  A    between atoms: CB_6  and  OG1_7 
ROOT
ATOM      1  CA  THR A   1       0.786   0.213  -0.335  1.00  0.00     0.342 C 
ENDROOT
BRANCH   1   2
ATOM      2  N   THR A   1       0.996   1.656  -0.184  1.00  0.00     0.095 N 
ATOM      3  H1  THR A   1       0.537   2.001   0.690  1.00  0.00     0.314 HD
ATOM      4  H2  THR A   1       0.558   2.154  -0.993  1.00  0.00     0.314 HD
ENDBRANCH   1   2
BRANCH   1   5
ATOM      5  CB  THR A   1      -0.703  -0.152  -0.582  1.00  0.00     0.157 C 
ATOM      6  CG2 THR A   1      -1.648   0.234   0.568  1.00  0.00     0.042 C 
BRANCH   5   7
ATOM      7  OG1 THR A   1      -0.801  -1.532  -0.825  1.00  0.00    -0.393 OA
ATOM      8  HG1 THR A   1      -1.663  -1.684  -1.296  1.00  0.00     0.210 HD
ENDBRANCH   5   7
ENDBRANCH   1   5
BRANCH   1   9
ATOM      9  C   THR A   1       1.390  -0.532   0.832  1.00  0.00     0.176 C 
ATOM     10  OXT THR A   1       1.091  -0.215   2.014  1.00  0.00    -0.648 OA
BRANCH   9  11
ATOM     11  O   THR A   1       2.298  -1.567   0.620  1.00  0.00    -0.775 OA
ATOM     12  H   THR A   1       2.563  -1.856  -0.314  1.00  0.00     0.167 HD
ENDBRANCH   9  11
ENDBRANCH   1   9
TORSDOF 5
