REMARK  2 active torsions:
REMARK  status: ('A' for Active; 'I' for Inactive)
REMARK    1  A    between atoms: C_7  and  O_8 
REMARK    2  A    between atoms: C_9  and  O_10 
ROOT
HETATM    1  O   LIG     1      -0.060   2.504   0.135  1.00  0.00    -0.286 OA
HETATM    2  C   LIG     1       0.095   1.260   0.003  1.00  0.00     0.197 C 
HETATM    3  C   LIG     1      -1.071   0.335   0.086  1.00  0.00     0.065 A 
HETATM    4  C   LIG     1      -0.823  -1.038   0.334  1.00  0.00     0.032 A 
HETATM    5  C   LIG     1      -1.898  -1.910   0.569  1.00  0.00     0.019 A 
HETATM    6  C   LIG     1      -3.207  -1.441   0.547  1.00  0.00     0.040 A 
HETATM    7  C   LIG     1      -3.474  -0.107   0.247  1.00  0.00     0.099 A 
HETATM    8  C   LIG     1      -2.418   0.783  -0.021  1.00  0.00     0.114 A 
HETATM    9  C   LIG     1       0.566  -1.559   0.340  1.00  0.00     0.194 C 
HETATM   10  C   LIG     1       1.698  -0.660   0.033  1.00  0.00     0.029 A 
HETATM   11  C   LIG     1       3.007  -1.163  -0.081  1.00  0.00     0.016 A 
HETATM   12  C   LIG     1       4.072  -0.305  -0.363  1.00  0.00     0.001 A 
HETATM   13  C   LIG     1       3.844   1.061  -0.531  1.00  0.00     0.001 A 
HETATM   14  C   LIG     1       2.550   1.574  -0.417  1.00  0.00     0.016 A 
HETATM   15  C   LIG     1       1.467   0.720  -0.139  1.00  0.00     0.029 A 
HETATM   16  O   LIG     1       0.782  -2.776   0.595  1.00  0.00    -0.287 OA
ENDROOT
BRANCH   7  17
HETATM   17  O   LIG     1      -4.803   0.315   0.200  1.00  0.00    -0.358 OA
HETATM   18  H   LIG     1      -5.062   1.271  -0.012  1.00  0.00     0.217 HD
ENDBRANCH   7  17
BRANCH   8  19
HETATM   19  O   LIG     1      -2.749   2.080  -0.423  1.00  0.00    -0.357 OA
HETATM   20  H   LIG     1      -2.116   2.695  -0.915  1.00  0.00     0.217 HD
ENDBRANCH   8  19
TORSDOF 2
