REMARK  5 active torsions:
REMARK  status: ('A' for Active; 'I' for Inactive)
REMARK    1  A    between atoms: C_2  and  C_5 
REMARK    2  A    between atoms: C_5  and  C_14 
REMARK    3  A    between atoms: C_5  and  C_6 
REMARK    4  A    between atoms: C_9  and  O_10 
REMARK    5  A    between atoms: C_17  and  O_18 
ROOT
HETATM    1  C   LIG     1      -0.182  -1.867   0.171  1.00  0.00     0.106 C 
ENDROOT
BRANCH   1   2
HETATM    2  C   LIG     1      -0.370  -2.719   1.465  1.00  0.00     0.200 C 
HETATM    3 CL   LIG     1      -2.024  -3.390   1.551  1.00  0.00    -0.083 Cl
HETATM    4 CL   LIG     1      -0.038  -1.840   2.986  1.00  0.00    -0.083 Cl
HETATM    5 CL   LIG     1       0.750  -4.111   1.427  1.00  0.00    -0.083 Cl
ENDBRANCH   1   2
BRANCH   1   6
HETATM    6  C   LIG     1      -1.321  -0.907  -0.174  1.00  0.00    -0.045 A 
HETATM    7  C   LIG     1      -1.759  -0.821  -1.510  1.00  0.00     0.011 A 
HETATM    8  C   LIG     1      -2.785   0.054  -1.872  1.00  0.00     0.037 A 
HETATM    9  C   LIG     1      -3.395   0.870  -0.916  1.00  0.00     0.068 A 
HETATM   10  C   LIG     1      -2.960   0.801   0.419  1.00  0.00     0.037 A 
HETATM   11  C   LIG     1      -1.933  -0.074   0.784  1.00  0.00     0.011 A 
BRANCH   9  12
HETATM   12  O   LIG     1      -4.422   1.732  -1.331  1.00  0.00    -0.356 OA
HETATM   13  C   LIG     1      -5.127   2.616  -0.466  1.00  0.00     0.210 C 
ENDBRANCH   9  12
ENDBRANCH   1   6
BRANCH   1  14
HETATM   14  C   LIG     1       1.173  -1.172   0.098  1.00  0.00    -0.045 A 
HETATM   15  C   LIG     1       1.434   0.019   0.803  1.00  0.00     0.011 A 
HETATM   16  C   LIG     1       2.683   0.641   0.715  1.00  0.00     0.037 A 
HETATM   17  C   LIG     1       3.698   0.086  -0.085  1.00  0.00     0.068 A 
HETATM   18  C   LIG     1       3.441  -1.093  -0.790  1.00  0.00     0.037 A 
HETATM   19  C   LIG     1       2.193  -1.716  -0.703  1.00  0.00     0.011 A 
BRANCH  17  20
HETATM   20  O   LIG     1       4.967   0.672  -0.205  1.00  0.00    -0.356 OA
HETATM   21  C   LIG     1       5.365   1.869   0.454  1.00  0.00     0.210 C 
ENDBRANCH  17  20
ENDBRANCH   1  14
TORSDOF 5
