MODEL 1
REMARK VINA RESULT:      -7.4      0.000      0.000
REMARK  2 active torsions:
REMARK  status: ('A' for Active; 'I' for Inactive)
REMARK    1  A    between atoms: C_7  and  O_8 
REMARK    2  A    between atoms: C_9  and  O_10 
ROOT
HETATM    1  O   LIG     1      18.079  39.610  23.050  1.00  0.00    -0.286 OA
HETATM    2  C   LIG     1      18.079  38.399  22.698  1.00  0.00     0.197 C 
HETATM    3  C   LIG     1      18.292  38.022  21.272  1.00  0.00     0.065 A 
HETATM    4  C   LIG     1      17.894  36.728  20.853  1.00  0.00     0.032 A 
HETATM    5  C   LIG     1      17.938  36.391  19.491  1.00  0.00     0.019 A 
HETATM    6  C   LIG     1      18.383  37.312  18.549  1.00  0.00     0.040 A 
HETATM    7  C   LIG     1      18.833  38.569  18.948  1.00  0.00     0.099 A 
HETATM    8  C   LIG     1      18.827  38.923  20.309  1.00  0.00     0.114 A 
HETATM    9  C   LIG     1      17.438  35.726  21.848  1.00  0.00     0.194 C 
HETATM   10  C   LIG     1      17.447  36.052  23.289  1.00  0.00     0.029 A 
HETATM   11  C   LIG     1      17.130  35.075  24.251  1.00  0.00     0.016 A 
HETATM   12  C   LIG     1      17.133  35.395  25.610  1.00  0.00     0.001 A 
HETATM   13  C   LIG     1      17.448  36.689  26.024  1.00  0.00     0.001 A 
HETATM   14  C   LIG     1      17.761  37.669  25.079  1.00  0.00     0.016 A 
HETATM   15  C   LIG     1      17.768  37.360  23.707  1.00  0.00     0.029 A 
HETATM   16  O   LIG     1      17.053  34.587  21.464  1.00  0.00    -0.287 OA
ENDROOT
BRANCH   7  17
HETATM   17  O   LIG     1      19.304  39.451  17.974  1.00  0.00    -0.358 OA
HETATM   18  H   LIG     1      18.721  40.173  17.568  1.00  0.00     0.217 HD
ENDBRANCH   7  17
BRANCH   8  19
HETATM   19  O   LIG     1      19.391  40.152  20.662  1.00  0.00    -0.357 OA
HETATM   20  H   LIG     1      20.331  40.431  20.416  1.00  0.00     0.217 HD
ENDBRANCH   8  19
TORSDOF 2
ENDMDL
MODEL 2
REMARK VINA RESULT:      -7.3      5.764      9.065
REMARK  2 active torsions:
REMARK  status: ('A' for Active; 'I' for Inactive)
REMARK    1  A    between atoms: C_7  and  O_8 
REMARK    2  A    between atoms: C_9  and  O_10 
ROOT
HETATM    1  O   LIG     1      13.587  30.712  17.686  1.00  0.00    -0.286 OA
HETATM    2  C   LIG     1      14.464  31.532  17.300  1.00  0.00     0.197 C 
HETATM    3  C   LIG     1      14.951  32.608  18.208  1.00  0.00     0.065 A 
HETATM    4  C   LIG     1      15.611  33.724  17.635  1.00  0.00     0.032 A 
HETATM    5  C   LIG     1      15.948  34.824  18.438  1.00  0.00     0.019 A 
HETATM    6  C   LIG     1      15.652  34.825  19.797  1.00  0.00     0.040 A 
HETATM    7  C   LIG     1      15.057  33.714  20.391  1.00  0.00     0.099 A 
HETATM    8  C   LIG     1      14.735  32.586  19.615  1.00  0.00     0.114 A 
HETATM    9  C   LIG     1      15.953  33.730  16.191  1.00  0.00     0.194 C 
HETATM   10  C   LIG     1      15.657  32.550  15.352  1.00  0.00     0.029 A 
HETATM   11  C   LIG     1      16.081  32.495  14.012  1.00  0.00     0.016 A 
HETATM   12  C   LIG     1      15.789  31.380  13.223  1.00  0.00     0.001 A 
HETATM   13  C   LIG     1      15.071  30.312  13.761  1.00  0.00     0.001 A 
HETATM   14  C   LIG     1      14.641  30.355  15.090  1.00  0.00     0.016 A 
HETATM   15  C   LIG     1      14.933  31.470  15.897  1.00  0.00     0.029 A 
HETATM   16  O   LIG     1      16.511  34.740  15.680  1.00  0.00    -0.287 OA
ENDROOT
BRANCH   7  17
HETATM   17  O   LIG     1      14.810  33.741  21.763  1.00  0.00    -0.358 OA
HETATM   18  H   LIG     1      13.952  33.384  22.168  1.00  0.00     0.217 HD
ENDBRANCH   7  17
BRANCH   8  19
HETATM   19  O   LIG     1      14.241  31.460  20.281  1.00  0.00    -0.357 OA
HETATM   20  H   LIG     1      13.799  31.493  21.189  1.00  0.00     0.217 HD
ENDBRANCH   8  19
TORSDOF 2
ENDMDL
MODEL 3
REMARK VINA RESULT:      -6.7      1.510      5.861
REMARK  2 active torsions:
REMARK  status: ('A' for Active; 'I' for Inactive)
REMARK    1  A    between atoms: C_7  and  O_8 
REMARK    2  A    between atoms: C_9  and  O_10 
ROOT
HETATM    1  O   LIG     1      16.979  35.223  21.305  1.00  0.00    -0.286 OA
HETATM    2  C   LIG     1      17.542  36.307  21.619  1.00  0.00     0.197 C 
HETATM    3  C   LIG     1      17.603  36.749  23.041  1.00  0.00     0.065 A 
HETATM    4  C   LIG     1      17.870  38.115  23.309  1.00  0.00     0.032 A 
HETATM    5  C   LIG     1      17.785  38.597  24.624  1.00  0.00     0.019 A 
HETATM    6  C   LIG     1      17.455  37.743  25.671  1.00  0.00     0.040 A 
HETATM    7  C   LIG     1      17.247  36.386  25.436  1.00  0.00     0.099 A 
HETATM    8  C   LIG     1      17.354  35.869  24.132  1.00  0.00     0.114 A 
HETATM    9  C   LIG     1      18.245  39.035  22.207  1.00  0.00     0.194 C 
HETATM   10  C   LIG     1      18.396  38.522  20.829  1.00  0.00     0.029 A 
HETATM   11  C   LIG     1      18.864  39.355  19.797  1.00  0.00     0.016 A 
HETATM   12  C   LIG     1      18.995  38.864  18.496  1.00  0.00     0.001 A 
HETATM   13  C   LIG     1      18.660  37.541  18.211  1.00  0.00     0.001 A 
HETATM   14  C   LIG     1      18.190  36.703  19.226  1.00  0.00     0.016 A 
HETATM   15  C   LIG     1      18.058  37.183  20.542  1.00  0.00     0.029 A 
HETATM   16  O   LIG     1      18.448  40.257  22.447  1.00  0.00    -0.287 OA
ENDROOT
BRANCH   7  17
HETATM   17  O   LIG     1      16.953  35.557  26.519  1.00  0.00    -0.358 OA
HETATM   18  H   LIG     1      16.341  34.754  26.437  1.00  0.00     0.217 HD
ENDBRANCH   7  17
BRANCH   8  19
HETATM   19  O   LIG     1      17.244  34.485  23.971  1.00  0.00    -0.357 OA
HETATM   20  H   LIG     1      17.515  33.814  24.676  1.00  0.00     0.217 HD
ENDBRANCH   8  19
TORSDOF 2
ENDMDL
MODEL 4
REMARK VINA RESULT:      -6.2      5.970      7.621
REMARK  2 active torsions:
REMARK  status: ('A' for Active; 'I' for Inactive)
REMARK    1  A    between atoms: C_7  and  O_8 
REMARK    2  A    between atoms: C_9  and  O_10 
ROOT
HETATM    1  O   LIG     1      16.117  35.006  16.233  1.00  0.00    -0.286 OA
HETATM    2  C   LIG     1      15.816  33.923  16.804  1.00  0.00     0.197 C 
HETATM    3  C   LIG     1      15.580  32.684  16.009  1.00  0.00     0.065 A 
HETATM    4  C   LIG     1      14.869  31.620  16.618  1.00  0.00     0.032 A 
HETATM    5  C   LIG     1      14.497  30.502  15.854  1.00  0.00     0.019 A 
HETATM    6  C   LIG     1      14.831  30.423  14.507  1.00  0.00     0.040 A 
HETATM    7  C   LIG     1      15.580  31.431  13.905  1.00  0.00     0.099 A 
HETATM    8  C   LIG     1      15.992  32.549  14.652  1.00  0.00     0.114 A 
HETATM    9  C   LIG     1      14.523  31.679  18.059  1.00  0.00     0.194 C 
HETATM   10  C   LIG     1      14.965  32.823  18.883  1.00  0.00     0.029 A 
HETATM   11  C   LIG     1      14.747  32.837  20.273  1.00  0.00     0.016 A 
HETATM   12  C   LIG     1      15.160  33.926  21.043  1.00  0.00     0.001 A 
HETATM   13  C   LIG     1      15.791  35.013  20.435  1.00  0.00     0.001 A 
HETATM   14  C   LIG     1      16.010  35.013  19.056  1.00  0.00     0.016 A 
HETATM   15  C   LIG     1      15.604  33.920  18.270  1.00  0.00     0.029 A 
HETATM   16  O   LIG     1      13.861  30.744  18.587  1.00  0.00    -0.287 OA
ENDROOT
BRANCH   7  17
HETATM   17  O   LIG     1      15.925  31.296  12.559  1.00  0.00    -0.358 OA
HETATM   18  H   LIG     1      16.384  32.035  12.040  1.00  0.00     0.217 HD
ENDBRANCH   7  17
BRANCH   8  19
HETATM   19  O   LIG     1      16.832  33.475  14.027  1.00  0.00    -0.357 OA
HETATM   20  H   LIG     1      16.598  33.959  13.172  1.00  0.00     0.217 HD
ENDBRANCH   8  19
TORSDOF 2
ENDMDL
MODEL 5
REMARK VINA RESULT:      -6.1      7.993     10.685
REMARK  2 active torsions:
REMARK  status: ('A' for Active; 'I' for Inactive)
REMARK    1  A    between atoms: C_7  and  O_8 
REMARK    2  A    between atoms: C_9  and  O_10 
ROOT
HETATM    1  O   LIG     1      12.631  30.426  16.355  1.00  0.00    -0.286 OA
HETATM    2  C   LIG     1      13.739  30.546  15.766  1.00  0.00     0.197 C 
HETATM    3  C   LIG     1      14.610  31.729  16.018  1.00  0.00     0.065 A 
HETATM    4  C   LIG     1      15.621  32.032  15.073  1.00  0.00     0.032 A 
HETATM    5  C   LIG     1      16.359  33.220  15.196  1.00  0.00     0.019 A 
HETATM    6  C   LIG     1      16.116  34.098  16.247  1.00  0.00     0.040 A 
HETATM    7  C   LIG     1      15.166  33.789  17.219  1.00  0.00     0.099 A 
HETATM    8  C   LIG     1      14.432  32.592  17.136  1.00  0.00     0.114 A 
HETATM    9  C   LIG     1      15.908  31.097  13.958  1.00  0.00     0.194 C 
HETATM   10  C   LIG     1      15.178  29.816  13.856  1.00  0.00     0.029 A 
HETATM   11  C   LIG     1      15.521  28.868  12.875  1.00  0.00     0.016 A 
HETATM   12  C   LIG     1      14.820  27.663  12.780  1.00  0.00     0.001 A 
HETATM   13  C   LIG     1      13.771  27.394  13.660  1.00  0.00     0.001 A 
HETATM   14  C   LIG     1      13.419  28.328  14.636  1.00  0.00     0.016 A 
HETATM   15  C   LIG     1      14.120  29.543  14.746  1.00  0.00     0.029 A 
HETATM   16  O   LIG     1      16.787  31.388  13.100  1.00  0.00    -0.287 OA
ENDROOT
BRANCH   7  17
HETATM   17  O   LIG     1      14.978  34.680  18.277  1.00  0.00    -0.358 OA
HETATM   18  H   LIG     1      14.612  34.387  19.175  1.00  0.00     0.217 HD
ENDBRANCH   7  17
BRANCH   8  19
HETATM   19  O   LIG     1      13.574  32.283  18.195  1.00  0.00    -0.357 OA
HETATM   20  H   LIG     1      12.866  32.912  18.548  1.00  0.00     0.217 HD
ENDBRANCH   8  19
TORSDOF 2
ENDMDL
MODEL 6
REMARK VINA RESULT:      -5.7      8.698     11.137
REMARK  2 active torsions:
REMARK  status: ('A' for Active; 'I' for Inactive)
REMARK    1  A    between atoms: C_7  and  O_8 
REMARK    2  A    between atoms: C_9  and  O_10 
ROOT
HETATM    1  O   LIG     1      16.514  31.338  13.174  1.00  0.00    -0.286 OA
HETATM    2  C   LIG     1      15.707  31.077  14.106  1.00  0.00     0.197 C 
HETATM    3  C   LIG     1      14.883  29.835  14.073  1.00  0.00     0.065 A 
HETATM    4  C   LIG     1      13.731  29.771  14.896  1.00  0.00     0.032 A 
HETATM    5  C   LIG     1      12.850  28.684  14.779  1.00  0.00     0.019 A 
HETATM    6  C   LIG     1      13.105  27.661  13.873  1.00  0.00     0.040 A 
HETATM    7  C   LIG     1      14.262  27.676  13.098  1.00  0.00     0.099 A 
HETATM    8  C   LIG     1      15.177  28.739  13.214  1.00  0.00     0.114 A 
HETATM    9  C   LIG     1      13.455  30.843  15.883  1.00  0.00     0.194 C 
HETATM   10  C   LIG     1      14.409  31.959  16.054  1.00  0.00     0.029 A 
HETATM   11  C   LIG     1      14.221  32.918  17.066  1.00  0.00     0.016 A 
HETATM   12  C   LIG     1      15.123  33.974  17.215  1.00  0.00     0.001 A 
HETATM   13  C   LIG     1      16.217  34.086  16.357  1.00  0.00     0.001 A 
HETATM   14  C   LIG     1      16.414  33.142  15.346  1.00  0.00     0.016 A 
HETATM   15  C   LIG     1      15.516  32.070  15.188  1.00  0.00     0.029 A 
HETATM   16  O   LIG     1      12.409  30.797  16.588  1.00  0.00    -0.287 OA
ENDROOT
BRANCH   7  17
HETATM   17  O   LIG     1      14.498  26.613  12.226  1.00  0.00    -0.358 OA
HETATM   18  H   LIG     1      15.233  26.635  11.529  1.00  0.00     0.217 HD
ENDBRANCH   7  17
BRANCH   8  19
HETATM   19  O   LIG     1      16.372  28.648  12.494  1.00  0.00    -0.357 OA
HETATM   20  H   LIG     1      16.759  27.778  12.155  1.00  0.00     0.217 HD
ENDBRANCH   8  19
TORSDOF 2
ENDMDL
MODEL 7
REMARK VINA RESULT:      -5.0      8.091     10.290
REMARK  2 active torsions:
REMARK  status: ('A' for Active; 'I' for Inactive)
REMARK    1  A    between atoms: C_7  and  O_8 
REMARK    2  A    between atoms: C_9  and  O_10 
ROOT
HETATM    1  O   LIG     1      16.363  34.123  16.387  1.00  0.00    -0.286 OA
HETATM    2  C   LIG     1      16.138  33.344  15.422  1.00  0.00     0.197 C 
HETATM    3  C   LIG     1      15.015  32.365  15.480  1.00  0.00     0.065 A 
HETATM    4  C   LIG     1      15.037  31.264  14.588  1.00  0.00     0.032 A 
HETATM    5  C   LIG     1      14.081  30.244  14.716  1.00  0.00     0.019 A 
HETATM    6  C   LIG     1      13.103  30.310  15.703  1.00  0.00     0.040 A 
HETATM    7  C   LIG     1      13.030  31.413  16.551  1.00  0.00     0.099 A 
HETATM    8  C   LIG     1      13.957  32.464  16.428  1.00  0.00     0.114 A 
HETATM    9  C   LIG     1      16.060  31.189  13.517  1.00  0.00     0.194 C 
HETATM   10  C   LIG     1      17.030  32.288  13.337  1.00  0.00     0.029 A 
HETATM   11  C   LIG     1      17.929  32.287  12.255  1.00  0.00     0.016 A 
HETATM   12  C   LIG     1      18.848  33.326  12.097  1.00  0.00     0.001 A 
HETATM   13  C   LIG     1      18.884  34.373  13.018  1.00  0.00     0.001 A 
HETATM   14  C   LIG     1      18.000  34.386  14.099  1.00  0.00     0.016 A 
HETATM   15  C   LIG     1      17.065  33.348  14.266  1.00  0.00     0.029 A 
HETATM   16  O   LIG     1      16.094  30.189  12.747  1.00  0.00    -0.287 OA
ENDROOT
BRANCH   7  17
HETATM   17  O   LIG     1      12.012  31.457  17.504  1.00  0.00    -0.358 OA
HETATM   18  H   LIG     1      11.032  31.482  17.251  1.00  0.00     0.217 HD
ENDBRANCH   7  17
BRANCH   8  19
HETATM   19  O   LIG     1      13.769  33.592  17.231  1.00  0.00    -0.357 OA
HETATM   20  H   LIG     1      13.584  33.551  18.223  1.00  0.00     0.217 HD
ENDBRANCH   8  19
TORSDOF 2
ENDMDL
MODEL 8
REMARK VINA RESULT:      -4.9      2.658      5.484
REMARK  2 active torsions:
REMARK  status: ('A' for Active; 'I' for Inactive)
REMARK    1  A    between atoms: C_7  and  O_8 
REMARK    2  A    between atoms: C_9  and  O_10 
ROOT
HETATM    1  O   LIG     1      17.284  35.792  18.052  1.00  0.00    -0.286 OA
HETATM    2  C   LIG     1      17.229  35.960  19.300  1.00  0.00     0.197 C 
HETATM    3  C   LIG     1      16.335  35.117  20.142  1.00  0.00     0.065 A 
HETATM    4  C   LIG     1      15.998  35.581  21.438  1.00  0.00     0.032 A 
HETATM    5  C   LIG     1      15.041  34.892  22.200  1.00  0.00     0.019 A 
HETATM    6  C   LIG     1      14.430  33.747  21.700  1.00  0.00     0.040 A 
HETATM    7  C   LIG     1      14.790  33.242  20.452  1.00  0.00     0.099 A 
HETATM    8  C   LIG     1      15.767  33.896  19.679  1.00  0.00     0.114 A 
HETATM    9  C   LIG     1      16.656  36.788  21.996  1.00  0.00     0.194 C 
HETATM   10  C   LIG     1      17.708  37.484  21.225  1.00  0.00     0.029 A 
HETATM   11  C   LIG     1      18.423  38.557  21.788  1.00  0.00     0.016 A 
HETATM   12  C   LIG     1      19.410  39.214  21.049  1.00  0.00     0.001 A 
HETATM   13  C   LIG     1      19.691  38.810  19.744  1.00  0.00     0.001 A 
HETATM   14  C   LIG     1      18.987  37.749  19.172  1.00  0.00     0.016 A 
HETATM   15  C   LIG     1      17.994  37.074  19.907  1.00  0.00     0.029 A 
HETATM   16  O   LIG     1      16.327  37.216  23.136  1.00  0.00    -0.287 OA
ENDROOT
BRANCH   7  17
HETATM   17  O   LIG     1      14.179  32.072  20.003  1.00  0.00    -0.358 OA
HETATM   18  H   LIG     1      13.302  32.077  19.495  1.00  0.00     0.217 HD
ENDBRANCH   7  17
BRANCH   8  19
HETATM   19  O   LIG     1      16.168  33.285  18.488  1.00  0.00    -0.357 OA
HETATM   20  H   LIG     1      16.866  33.669  17.866  1.00  0.00     0.217 HD
ENDBRANCH   8  19
TORSDOF 2
ENDMDL
MODEL 9
REMARK VINA RESULT:      -4.7     16.220     17.327
REMARK  2 active torsions:
REMARK  status: ('A' for Active; 'I' for Inactive)
REMARK    1  A    between atoms: C_7  and  O_8 
REMARK    2  A    between atoms: C_9  and  O_10 
ROOT
HETATM    1  O   LIG     1      26.496  23.432  22.618  1.00  0.00    -0.286 OA
HETATM    2  C   LIG     1      25.402  22.807  22.651  1.00  0.00     0.197 C 
HETATM    3  C   LIG     1      24.782  22.426  23.952  1.00  0.00     0.065 A 
HETATM    4  C   LIG     1      23.799  21.405  23.954  1.00  0.00     0.032 A 
HETATM    5  C   LIG     1      23.305  20.915  25.173  1.00  0.00     0.019 A 
HETATM    6  C   LIG     1      23.762  21.432  26.381  1.00  0.00     0.040 A 
HETATM    7  C   LIG     1      24.684  22.476  26.398  1.00  0.00     0.099 A 
HETATM    8  C   LIG     1      25.175  23.006  25.191  1.00  0.00     0.114 A 
HETATM    9  C   LIG     1      23.285  20.858  22.675  1.00  0.00     0.194 C 
HETATM   10  C   LIG     1      23.755  21.411  21.388  1.00  0.00     0.029 A 
HETATM   11  C   LIG     1      23.191  20.984  20.171  1.00  0.00     0.016 A 
HETATM   12  C   LIG     1      23.647  21.506  18.959  1.00  0.00     0.001 A 
HETATM   13  C   LIG     1      24.670  22.454  18.947  1.00  0.00     0.001 A 
HETATM   14  C   LIG     1      25.241  22.884  20.147  1.00  0.00     0.016 A 
HETATM   15  C   LIG     1      24.787  22.371  21.375  1.00  0.00     0.029 A 
HETATM   16  O   LIG     1      22.434  19.926  22.684  1.00  0.00    -0.287 OA
ENDROOT
BRANCH   7  17
HETATM   17  O   LIG     1      25.090  22.990  27.630  1.00  0.00    -0.358 OA
HETATM   18  H   LIG     1      25.523  22.415  28.342  1.00  0.00     0.217 HD
ENDBRANCH   7  17
BRANCH   8  19
HETATM   19  O   LIG     1      26.013  24.122  25.266  1.00  0.00    -0.357 OA
HETATM   20  H   LIG     1      27.021  24.068  25.298  1.00  0.00     0.217 HD
ENDBRANCH   8  19
TORSDOF 2
ENDMDL
MODEL 10
REMARK VINA RESULT:      -4.7     16.092     17.012
REMARK  2 active torsions:
REMARK  status: ('A' for Active; 'I' for Inactive)
REMARK    1  A    between atoms: C_7  and  O_8 
REMARK    2  A    between atoms: C_9  and  O_10 
ROOT
HETATM    1  O   LIG     1      27.081  23.392  22.867  1.00  0.00    -0.286 OA
HETATM    2  C   LIG     1      26.193  23.271  21.980  1.00  0.00     0.197 C 
HETATM    3  C   LIG     1      24.970  22.457  22.234  1.00  0.00     0.065 A 
HETATM    4  C   LIG     1      24.213  22.018  21.120  1.00  0.00     0.032 A 
HETATM    5  C   LIG     1      23.145  21.126  21.310  1.00  0.00     0.019 A 
HETATM    6  C   LIG     1      22.814  20.680  22.585  1.00  0.00     0.040 A 
HETATM    7  C   LIG     1      23.510  21.147  23.699  1.00  0.00     0.099 A 
HETATM    8  C   LIG     1      24.566  22.063  23.540  1.00  0.00     0.114 A 
HETATM    9  C   LIG     1      24.538  22.500  19.755  1.00  0.00     0.194 C 
HETATM   10  C   LIG     1      25.621  23.485  19.554  1.00  0.00     0.029 A 
HETATM   11  C   LIG     1      25.863  24.040  18.284  1.00  0.00     0.016 A 
HETATM   12  C   LIG     1      26.894  24.965  18.102  1.00  0.00     0.001 A 
HETATM   13  C   LIG     1      27.694  25.342  19.181  1.00  0.00     0.001 A 
HETATM   14  C   LIG     1      27.466  24.796  20.446  1.00  0.00     0.016 A 
HETATM   15  C   LIG     1      26.428  23.869  20.645  1.00  0.00     0.029 A 
HETATM   16  O   LIG     1      23.881  22.078  18.764  1.00  0.00    -0.287 OA
ENDROOT
BRANCH   7  17
HETATM   17  O   LIG     1      23.124  20.702  24.963  1.00  0.00    -0.358 OA
HETATM   18  H   LIG     1      23.477  19.844  25.369  1.00  0.00     0.217 HD
ENDBRANCH   7  17
BRANCH   8  19
HETATM   19  O   LIG     1      25.155  22.580  24.698  1.00  0.00    -0.357 OA
HETATM   20  H   LIG     1      26.153  22.652  24.836  1.00  0.00     0.217 HD
ENDBRANCH   8  19
TORSDOF 2
ENDMDL
MODEL 11
REMARK VINA RESULT:      -4.6     16.376     17.408
REMARK  2 active torsions:
REMARK  status: ('A' for Active; 'I' for Inactive)
REMARK    1  A    between atoms: C_7  and  O_8 
REMARK    2  A    between atoms: C_9  and  O_10 
ROOT
HETATM    1  O   LIG     1      22.283  21.426  22.404  1.00  0.00    -0.286 OA
HETATM    2  C   LIG     1      23.469  21.772  22.154  1.00  0.00     0.197 C 
HETATM    3  C   LIG     1      24.433  22.038  23.260  1.00  0.00     0.065 A 
HETATM    4  C   LIG     1      25.596  22.793  22.970  1.00  0.00     0.032 A 
HETATM    5  C   LIG     1      26.448  23.191  24.013  1.00  0.00     0.019 A 
HETATM    6  C   LIG     1      26.167  22.839  25.329  1.00  0.00     0.040 A 
HETATM    7  C   LIG     1      25.060  22.047  25.627  1.00  0.00     0.099 A 
HETATM    8  C   LIG     1      24.206  21.609  24.598  1.00  0.00     0.114 A 
HETATM    9  C   LIG     1      25.922  23.160  21.570  1.00  0.00     0.194 C 
HETATM   10  C   LIG     1      25.064  22.693  20.461  1.00  0.00     0.029 A 
HETATM   11  C   LIG     1      25.423  22.932  19.122  1.00  0.00     0.016 A 
HETATM   12  C   LIG     1      24.603  22.494  18.081  1.00  0.00     0.001 A 
HETATM   13  C   LIG     1      23.416  21.817  18.363  1.00  0.00     0.001 A 
HETATM   14  C   LIG     1      23.045  21.576  19.688  1.00  0.00     0.016 A 
HETATM   15  C   LIG     1      23.866  22.007  20.746  1.00  0.00     0.029 A 
HETATM   16  O   LIG     1      26.941  23.862  21.323  1.00  0.00    -0.287 OA
ENDROOT
BRANCH   7  17
HETATM   17  O   LIG     1      24.834  21.685  26.955  1.00  0.00    -0.358 OA
HETATM   18  H   LIG     1      25.590  21.482  27.599  1.00  0.00     0.217 HD
ENDBRANCH   7  17
BRANCH   8  19
HETATM   19  O   LIG     1      23.176  20.728  24.941  1.00  0.00    -0.357 OA
HETATM   20  H   LIG     1      23.328  19.775  25.240  1.00  0.00     0.217 HD
ENDBRANCH   8  19
TORSDOF 2
ENDMDL
MODEL 12
REMARK VINA RESULT:      -4.5     15.908     17.582
REMARK  2 active torsions:
REMARK  status: ('A' for Active; 'I' for Inactive)
REMARK    1  A    between atoms: C_7  and  O_8 
REMARK    2  A    between atoms: C_9  and  O_10 
ROOT
HETATM    1  O   LIG     1      24.684  23.583  20.618  1.00  0.00    -0.286 OA
HETATM    2  C   LIG     1      25.320  23.302  19.567  1.00  0.00     0.197 C 
HETATM    3  C   LIG     1      25.006  22.066  18.795  1.00  0.00     0.065 A 
HETATM    4  C   LIG     1      25.974  21.582  17.879  1.00  0.00     0.032 A 
HETATM    5  C   LIG     1      25.780  20.343  17.249  1.00  0.00     0.019 A 
HETATM    6  C   LIG     1      24.639  19.590  17.505  1.00  0.00     0.040 A 
HETATM    7  C   LIG     1      23.649  20.076  18.357  1.00  0.00     0.099 A 
HETATM    8  C   LIG     1      23.803  21.327  18.980  1.00  0.00     0.114 A 
HETATM    9  C   LIG     1      27.186  22.382  17.579  1.00  0.00     0.194 C 
HETATM   10  C   LIG     1      27.368  23.715  18.191  1.00  0.00     0.029 A 
HETATM   11  C   LIG     1      28.452  24.534  17.826  1.00  0.00     0.016 A 
HETATM   12  C   LIG     1      28.620  25.788  18.416  1.00  0.00     0.001 A 
HETATM   13  C   LIG     1      27.713  26.237  19.376  1.00  0.00     0.001 A 
HETATM   14  C   LIG     1      26.635  25.432  19.750  1.00  0.00     0.016 A 
HETATM   15  C   LIG     1      26.450  24.169  19.160  1.00  0.00     0.029 A 
HETATM   16  O   LIG     1      28.060  21.930  16.788  1.00  0.00    -0.287 OA
ENDROOT
BRANCH   7  17
HETATM   17  O   LIG     1      22.503  19.305  18.559  1.00  0.00    -0.358 OA
HETATM   18  H   LIG     1      22.372  18.733  19.384  1.00  0.00     0.217 HD
ENDBRANCH   7  17
BRANCH   8  19
HETATM   19  O   LIG     1      22.732  21.812  19.735  1.00  0.00    -0.357 OA
HETATM   20  H   LIG     1      22.169  22.607  19.467  1.00  0.00     0.217 HD
ENDBRANCH   8  19
TORSDOF 2
ENDMDL
MODEL 13
REMARK VINA RESULT:      -4.5     15.727     16.695
REMARK  2 active torsions:
REMARK  status: ('A' for Active; 'I' for Inactive)
REMARK    1  A    between atoms: C_7  and  O_8 
REMARK    2  A    between atoms: C_9  and  O_10 
ROOT
HETATM    1  O   LIG     1      25.185  22.393  22.745  1.00  0.00    -0.286 OA
HETATM    2  C   LIG     1      25.520  22.734  21.578  1.00  0.00     0.197 C 
HETATM    3  C   LIG     1      26.615  23.722  21.359  1.00  0.00     0.065 A 
HETATM    4  C   LIG     1      26.692  24.371  20.102  1.00  0.00     0.032 A 
HETATM    5  C   LIG     1      27.612  25.414  19.910  1.00  0.00     0.019 A 
HETATM    6  C   LIG     1      28.459  25.808  20.940  1.00  0.00     0.040 A 
HETATM    7  C   LIG     1      28.439  25.142  22.164  1.00  0.00     0.099 A 
HETATM    8  C   LIG     1      27.547  24.075  22.375  1.00  0.00     0.114 A 
HETATM    9  C   LIG     1      25.809  23.950  18.986  1.00  0.00     0.194 C 
HETATM   10  C   LIG     1      24.882  22.813  19.161  1.00  0.00     0.029 A 
HETATM   11  C   LIG     1      24.125  22.327  18.079  1.00  0.00     0.016 A 
HETATM   12  C   LIG     1      23.245  21.258  18.255  1.00  0.00     0.001 A 
HETATM   13  C   LIG     1      23.107  20.665  19.510  1.00  0.00     0.001 A 
HETATM   14  C   LIG     1      23.849  21.140  20.594  1.00  0.00     0.016 A 
HETATM   15  C   LIG     1      24.745  22.212  20.429  1.00  0.00     0.029 A 
HETATM   16  O   LIG     1      25.860  24.555  17.879  1.00  0.00    -0.287 OA
ENDROOT
BRANCH   7  17
HETATM   17  O   LIG     1      29.331  25.545  23.159  1.00  0.00    -0.358 OA
HETATM   18  H   LIG     1      30.165  25.017  23.386  1.00  0.00     0.217 HD
ENDBRANCH   7  17
BRANCH   8  19
HETATM   19  O   LIG     1      27.647  23.375  23.580  1.00  0.00    -0.357 OA
HETATM   20  H   LIG     1      27.830  22.383  23.641  1.00  0.00     0.217 HD
ENDBRANCH   8  19
TORSDOF 2
ENDMDL
MODEL 14
REMARK VINA RESULT:      -4.5     15.798     17.199
REMARK  2 active torsions:
REMARK  status: ('A' for Active; 'I' for Inactive)
REMARK    1  A    between atoms: C_7  and  O_8 
REMARK    2  A    between atoms: C_9  and  O_10 
ROOT
HETATM    1  O   LIG     1      27.271  21.438  17.134  1.00  0.00    -0.286 OA
HETATM    2  C   LIG     1      26.414  22.028  17.846  1.00  0.00     0.197 C 
HETATM    3  C   LIG     1      26.687  23.386  18.396  1.00  0.00     0.065 A 
HETATM    4  C   LIG     1      25.906  23.838  19.489  1.00  0.00     0.032 A 
HETATM    5  C   LIG     1      26.233  25.044  20.129  1.00  0.00     0.019 A 
HETATM    6  C   LIG     1      27.309  25.807  19.693  1.00  0.00     0.040 A 
HETATM    7  C   LIG     1      28.053  25.410  18.584  1.00  0.00     0.099 A 
HETATM    8  C   LIG     1      27.731  24.221  17.905  1.00  0.00     0.114 A 
HETATM    9  C   LIG     1      24.741  23.046  19.954  1.00  0.00     0.194 C 
HETATM   10  C   LIG     1      24.354  21.808  19.247  1.00  0.00     0.029 A 
HETATM   11  C   LIG     1      23.185  21.110  19.602  1.00  0.00     0.016 A 
HETATM   12  C   LIG     1      22.831  19.937  18.934  1.00  0.00     0.001 A 
HETATM   13  C   LIG     1      23.639  19.445  17.908  1.00  0.00     0.001 A 
HETATM   14  C   LIG     1      24.804  20.125  17.548  1.00  0.00     0.016 A 
HETATM   15  C   LIG     1      25.170  21.312  18.209  1.00  0.00     0.029 A 
HETATM   16  O   LIG     1      24.070  23.437  20.949  1.00  0.00    -0.287 OA
ENDROOT
BRANCH   7  17
HETATM   17  O   LIG     1      29.103  26.223  18.156  1.00  0.00    -0.358 OA
HETATM   18  H   LIG     1      29.123  27.221  18.329  1.00  0.00     0.217 HD
ENDBRANCH   7  17
BRANCH   8  19
HETATM   19  O   LIG     1      28.439  23.928  16.736  1.00  0.00    -0.357 OA
HETATM   20  H   LIG     1      28.469  24.536  15.930  1.00  0.00     0.217 HD
ENDBRANCH   8  19
TORSDOF 2
ENDMDL
MODEL 15
REMARK VINA RESULT:      -4.5     15.605     16.273
REMARK  2 active torsions:
REMARK  status: ('A' for Active; 'I' for Inactive)
REMARK    1  A    between atoms: C_7  and  O_8 
REMARK    2  A    between atoms: C_9  and  O_10 
ROOT
HETATM    1  O   LIG     1      24.640  22.739  19.164  1.00  0.00    -0.286 OA
HETATM    2  C   LIG     1      25.057  23.004  20.324  1.00  0.00     0.197 C 
HETATM    3  C   LIG     1      26.206  23.932  20.526  1.00  0.00     0.065 A 
HETATM    4  C   LIG     1      26.891  23.894  21.766  1.00  0.00     0.032 A 
HETATM    5  C   LIG     1      28.066  24.642  21.938  1.00  0.00     0.019 A 
HETATM    6  C   LIG     1      28.559  25.433  20.905  1.00  0.00     0.040 A 
HETATM    7  C   LIG     1      27.868  25.529  19.699  1.00  0.00     0.099 A 
HETATM    8  C   LIG     1      26.672  24.813  19.509  1.00  0.00     0.114 A 
HETATM    9  C   LIG     1      26.368  23.073  22.886  1.00  0.00     0.194 C 
HETATM   10  C   LIG     1      25.098  22.332  22.733  1.00  0.00     0.029 A 
HETATM   11  C   LIG     1      24.530  21.645  23.822  1.00  0.00     0.016 A 
HETATM   12  C   LIG     1      23.335  20.940  23.667  1.00  0.00     0.001 A 
HETATM   13  C   LIG     1      22.696  20.910  22.427  1.00  0.00     0.001 A 
HETATM   14  C   LIG     1      23.252  21.584  21.337  1.00  0.00     0.016 A 
HETATM   15  C   LIG     1      24.452  22.303  21.480  1.00  0.00     0.029 A 
HETATM   16  O   LIG     1      27.000  23.017  23.976  1.00  0.00    -0.287 OA
ENDROOT
BRANCH   7  17
HETATM   17  O   LIG     1      28.377  26.360  18.701  1.00  0.00    -0.358 OA
HETATM   18  H   LIG     1      29.064  27.080  18.891  1.00  0.00     0.217 HD
ENDBRANCH   7  17
BRANCH   8  19
HETATM   19  O   LIG     1      25.965  25.032  18.323  1.00  0.00    -0.357 OA
HETATM   20  H   LIG     1      25.432  25.869  18.133  1.00  0.00     0.217 HD
ENDBRANCH   8  19
TORSDOF 2
ENDMDL
MODEL 16
REMARK VINA RESULT:      -4.5     16.204     17.314
REMARK  2 active torsions:
REMARK  status: ('A' for Active; 'I' for Inactive)
REMARK    1  A    between atoms: C_7  and  O_8 
REMARK    2  A    between atoms: C_9  and  O_10 
ROOT
HETATM    1  O   LIG     1      26.580  23.654  23.420  1.00  0.00    -0.286 OA
HETATM    2  C   LIG     1      25.559  23.040  23.830  1.00  0.00     0.197 C 
HETATM    3  C   LIG     1      25.334  22.823  25.287  1.00  0.00     0.065 A 
HETATM    4  C   LIG     1      24.423  21.813  25.684  1.00  0.00     0.032 A 
HETATM    5  C   LIG     1      24.301  21.477  27.042  1.00  0.00     0.019 A 
HETATM    6  C   LIG     1      25.056  22.138  28.005  1.00  0.00     0.040 A 
HETATM    7  C   LIG     1      25.913  23.174  27.641  1.00  0.00     0.099 A 
HETATM    8  C   LIG     1      26.035  23.551  26.291  1.00  0.00     0.114 A 
HETATM    9  C   LIG     1      23.595  21.112  24.672  1.00  0.00     0.194 C 
HETATM   10  C   LIG     1      23.674  21.502  23.249  1.00  0.00     0.029 A 
HETATM   11  C   LIG     1      22.810  20.929  22.296  1.00  0.00     0.016 A 
HETATM   12  C   LIG     1      22.898  21.297  20.952  1.00  0.00     0.001 A 
HETATM   13  C   LIG     1      23.846  22.235  20.544  1.00  0.00     0.001 A 
HETATM   14  C   LIG     1      24.712  22.808  21.478  1.00  0.00     0.016 A 
HETATM   15  C   LIG     1      24.631  22.451  22.837  1.00  0.00     0.029 A 
HETATM   16  O   LIG     1      22.810  20.190  25.028  1.00  0.00    -0.287 OA
ENDROOT
BRANCH   7  17
HETATM   17  O   LIG     1      26.626  23.836  28.641  1.00  0.00    -0.358 OA
HETATM   18  H   LIG     1      26.226  24.039  29.549  1.00  0.00     0.217 HD
ENDBRANCH   7  17
BRANCH   8  19
HETATM   19  O   LIG     1      26.824  24.666  25.997  1.00  0.00    -0.357 OA
HETATM   20  H   LIG     1      27.779  24.777  26.308  1.00  0.00     0.217 HD
ENDBRANCH   8  19
TORSDOF 2
ENDMDL
