MODEL 1
REMARK VINA RESULT:      -6.8      0.000      0.000
REMARK  2 active torsions:
REMARK  status: ('A' for Active; 'I' for Inactive)
REMARK    1  A    between atoms: C_4  and  C_5 
REMARK    2  A    between atoms: C_4  and  C_12 
ROOT
HETATM    1 CL   LIG     1      13.509  31.632  17.512  1.00  0.00    -0.070 Cl
HETATM    2  C   LIG     1      14.762  32.382  16.529  1.00  0.00     0.115 C 
HETATM    3 CL   LIG     1      15.337  33.954  17.079  1.00  0.00    -0.070 Cl
HETATM    4  C   LIG     1      15.253  31.789  15.418  1.00  0.00     0.018 C 
ENDROOT
BRANCH   4   5
HETATM    5  C   LIG     1      16.393  32.373  14.671  1.00  0.00    -0.022 A 
HETATM    6  C   LIG     1      16.253  32.748  13.323  1.00  0.00     0.014 A 
HETATM    7  C   LIG     1      17.325  33.331  12.640  1.00  0.00     0.024 A 
HETATM    8  C   LIG     1      18.538  33.555  13.298  1.00  0.00     0.034 A 
HETATM    9  C   LIG     1      18.678  33.201  14.643  1.00  0.00     0.024 A 
HETATM   10 CL   LIG     1      19.881  34.288  12.439  1.00  0.00    -0.084 Cl
HETATM   11  C   LIG     1      17.609  32.618  15.330  1.00  0.00     0.014 A 
ENDBRANCH   4   5
BRANCH   4  12
HETATM   12  C   LIG     1      14.673  30.528  14.897  1.00  0.00    -0.022 A 
HETATM   13  C   LIG     1      15.512  29.551  14.336  1.00  0.00     0.014 A 
HETATM   14  C   LIG     1      14.970  28.374  13.811  1.00  0.00     0.024 A 
HETATM   15  C   LIG     1      13.588  28.167  13.831  1.00  0.00     0.034 A 
HETATM   16  C   LIG     1      12.744  29.144  14.371  1.00  0.00     0.024 A 
HETATM   17 CL   LIG     1      12.911  26.691  13.170  1.00  0.00    -0.084 Cl
HETATM   18  C   LIG     1      13.283  30.321  14.897  1.00  0.00     0.014 A 
ENDBRANCH   4  12
TORSDOF 2
ENDMDL
MODEL 2
REMARK VINA RESULT:      -6.5      2.082      5.659
REMARK  2 active torsions:
REMARK  status: ('A' for Active; 'I' for Inactive)
REMARK    1  A    between atoms: C_4  and  C_5 
REMARK    2  A    between atoms: C_4  and  C_12 
ROOT
HETATM    1 CL   LIG     1      14.543  30.166  14.003  1.00  0.00    -0.070 Cl
HETATM    2  C   LIG     1      14.427  31.053  15.520  1.00  0.00     0.115 C 
HETATM    3 CL   LIG     1      13.086  30.610  16.572  1.00  0.00    -0.070 Cl
HETATM    4  C   LIG     1      15.313  32.017  15.856  1.00  0.00     0.018 C 
ENDROOT
BRANCH   4   5
HETATM    5  C   LIG     1      15.277  32.668  17.187  1.00  0.00    -0.022 A 
HETATM    6  C   LIG     1      15.406  31.907  18.363  1.00  0.00     0.014 A 
HETATM    7  C   LIG     1      15.407  32.535  19.612  1.00  0.00     0.024 A 
HETATM    8  C   LIG     1      15.290  33.926  19.697  1.00  0.00     0.034 A 
HETATM    9  C   LIG     1      15.179  34.690  18.532  1.00  0.00     0.024 A 
HETATM   10 CL   LIG     1      15.293  34.713  21.266  1.00  0.00    -0.084 Cl
HETATM   11  C   LIG     1      15.179  34.066  17.281  1.00  0.00     0.014 A 
ENDBRANCH   4   5
BRANCH   4  12
HETATM   12  C   LIG     1      16.361  32.466  14.907  1.00  0.00    -0.022 A 
HETATM   13  C   LIG     1      17.622  32.852  15.389  1.00  0.00     0.014 A 
HETATM   14  C   LIG     1      18.604  33.310  14.506  1.00  0.00     0.024 A 
HETATM   15  C   LIG     1      18.332  33.397  13.137  1.00  0.00     0.034 A 
HETATM   16  C   LIG     1      17.072  33.032  12.652  1.00  0.00     0.024 A 
HETATM   17 CL   LIG     1      19.565  33.974  12.031  1.00  0.00    -0.084 Cl
HETATM   18  C   LIG     1      16.088  32.573  13.532  1.00  0.00     0.014 A 
ENDBRANCH   4  12
TORSDOF 2
ENDMDL
MODEL 3
REMARK VINA RESULT:      -6.5      2.081      4.731
REMARK  2 active torsions:
REMARK  status: ('A' for Active; 'I' for Inactive)
REMARK    1  A    between atoms: C_4  and  C_5 
REMARK    2  A    between atoms: C_4  and  C_12 
ROOT
HETATM    1 CL   LIG     1      13.087  30.607  16.570  1.00  0.00    -0.070 Cl
HETATM    2  C   LIG     1      14.427  31.051  15.518  1.00  0.00     0.115 C 
HETATM    3 CL   LIG     1      14.543  30.166  14.000  1.00  0.00    -0.070 Cl
HETATM    4  C   LIG     1      15.315  32.013  15.855  1.00  0.00     0.018 C 
ENDROOT
BRANCH   4   5
HETATM    5  C   LIG     1      16.362  32.463  14.907  1.00  0.00    -0.022 A 
HETATM    6  C   LIG     1      16.086  32.581  13.534  1.00  0.00     0.014 A 
HETATM    7  C   LIG     1      17.071  33.040  12.654  1.00  0.00     0.024 A 
HETATM    8  C   LIG     1      18.334  33.396  13.139  1.00  0.00     0.034 A 
HETATM    9  C   LIG     1      18.609  33.299  14.506  1.00  0.00     0.024 A 
HETATM   10 CL   LIG     1      19.568  33.975  12.033  1.00  0.00    -0.084 Cl
HETATM   11  C   LIG     1      17.626  32.840  15.389  1.00  0.00     0.014 A 
ENDBRANCH   4   5
BRANCH   4  12
HETATM   12  C   LIG     1      15.280  32.662  17.188  1.00  0.00    -0.022 A 
HETATM   13  C   LIG     1      15.183  34.059  17.284  1.00  0.00     0.014 A 
HETATM   14  C   LIG     1      15.185  34.682  18.536  1.00  0.00     0.024 A 
HETATM   15  C   LIG     1      15.294  33.915  19.701  1.00  0.00     0.034 A 
HETATM   16  C   LIG     1      15.410  32.525  19.613  1.00  0.00     0.024 A 
HETATM   17 CL   LIG     1      15.299  34.699  21.270  1.00  0.00    -0.084 Cl
HETATM   18  C   LIG     1      15.408  31.900  18.362  1.00  0.00     0.014 A 
ENDBRANCH   4  12
TORSDOF 2
ENDMDL
MODEL 4
REMARK VINA RESULT:      -5.3     13.472     14.288
REMARK  2 active torsions:
REMARK  status: ('A' for Active; 'I' for Inactive)
REMARK    1  A    between atoms: C_4  and  C_5 
REMARK    2  A    between atoms: C_4  and  C_12 
ROOT
HETATM    1 CL   LIG     1      25.649  20.729  22.207  1.00  0.00    -0.070 Cl
HETATM    2  C   LIG     1      26.312  22.206  21.515  1.00  0.00     0.115 C 
HETATM    3 CL   LIG     1      27.329  23.170  22.583  1.00  0.00    -0.070 Cl
HETATM    4  C   LIG     1      26.055  22.579  20.241  1.00  0.00     0.018 C 
ENDROOT
BRANCH   4   5
HETATM    5  C   LIG     1      26.718  23.757  19.634  1.00  0.00    -0.022 A 
HETATM    6  C   LIG     1      26.157  25.041  19.755  1.00  0.00     0.014 A 
HETATM    7  C   LIG     1      26.811  26.150  19.209  1.00  0.00     0.024 A 
HETATM    8  C   LIG     1      28.033  25.989  18.549  1.00  0.00     0.034 A 
HETATM    9  C   LIG     1      28.606  24.718  18.441  1.00  0.00     0.024 A 
HETATM   10 CL   LIG     1      28.852  27.382  17.866  1.00  0.00    -0.084 Cl
HETATM   11  C   LIG     1      27.956  23.607  18.986  1.00  0.00     0.014 A 
ENDBRANCH   4   5
BRANCH   4  12
HETATM   12  C   LIG     1      25.098  21.826  19.395  1.00  0.00    -0.022 A 
HETATM   13  C   LIG     1      23.721  22.071  19.507  1.00  0.00     0.014 A 
HETATM   14  C   LIG     1      22.809  21.340  18.739  1.00  0.00     0.024 A 
HETATM   15  C   LIG     1      23.265  20.352  17.861  1.00  0.00     0.034 A 
HETATM   16  C   LIG     1      24.635  20.089  17.757  1.00  0.00     0.024 A 
HETATM   17 CL   LIG     1      22.120  19.435  16.900  1.00  0.00    -0.084 Cl
HETATM   18  C   LIG     1      25.548  20.818  18.524  1.00  0.00     0.014 A 
ENDBRANCH   4  12
TORSDOF 2
ENDMDL
MODEL 5
REMARK VINA RESULT:      -5.3     13.487     15.311
REMARK  2 active torsions:
REMARK  status: ('A' for Active; 'I' for Inactive)
REMARK    1  A    between atoms: C_4  and  C_5 
REMARK    2  A    between atoms: C_4  and  C_12 
ROOT
HETATM    1 CL   LIG     1      27.340  23.206  22.574  1.00  0.00    -0.070 Cl
HETATM    2  C   LIG     1      26.304  22.244  21.523  1.00  0.00     0.115 C 
HETATM    3 CL   LIG     1      25.599  20.801  22.246  1.00  0.00    -0.070 Cl
HETATM    4  C   LIG     1      26.066  22.591  20.238  1.00  0.00     0.018 C 
ENDROOT
BRANCH   4   5
HETATM    5  C   LIG     1      25.096  21.843  19.405  1.00  0.00    -0.022 A 
HETATM    6  C   LIG     1      25.525  20.810  18.553  1.00  0.00     0.014 A 
HETATM    7  C   LIG     1      24.597  20.086  17.798  1.00  0.00     0.024 A 
HETATM    8  C   LIG     1      23.233  20.381  17.895  1.00  0.00     0.034 A 
HETATM    9  C   LIG     1      22.797  21.395  18.753  1.00  0.00     0.024 A 
HETATM   10 CL   LIG     1      22.069  19.471  16.949  1.00  0.00    -0.084 Cl
HETATM   11  C   LIG     1      23.723  22.120  19.510  1.00  0.00     0.014 A 
ENDBRANCH   4   5
BRANCH   4  12
HETATM   12  C   LIG     1      26.765  23.737  19.607  1.00  0.00    -0.022 A 
HETATM   13  C   LIG     1      28.001  23.540  18.972  1.00  0.00     0.014 A 
HETATM   14  C   LIG     1      28.683  24.621  18.405  1.00  0.00     0.024 A 
HETATM   15  C   LIG     1      28.142  25.908  18.478  1.00  0.00     0.034 A 
HETATM   16  C   LIG     1      26.920  26.116  19.125  1.00  0.00     0.024 A 
HETATM   17 CL   LIG     1      29.001  27.263  17.768  1.00  0.00    -0.084 Cl
HETATM   18  C   LIG     1      26.236  25.037  19.692  1.00  0.00     0.014 A 
ENDBRANCH   4  12
TORSDOF 2
ENDMDL
MODEL 6
REMARK VINA RESULT:      -5.1     15.368     16.723
REMARK  2 active torsions:
REMARK  status: ('A' for Active; 'I' for Inactive)
REMARK    1  A    between atoms: C_4  and  C_5 
REMARK    2  A    between atoms: C_4  and  C_12 
ROOT
HETATM    1 CL   LIG     1      23.356  20.238  26.650  1.00  0.00    -0.070 Cl
HETATM    2  C   LIG     1      23.189  20.320  24.898  1.00  0.00     0.115 C 
HETATM    3 CL   LIG     1      21.978  19.257  24.188  1.00  0.00    -0.070 Cl
HETATM    4  C   LIG     1      23.946  21.149  24.145  1.00  0.00     0.018 C 
ENDROOT
BRANCH   4   5
HETATM    5  C   LIG     1      23.709  21.299  22.689  1.00  0.00    -0.022 A 
HETATM    6  C   LIG     1      24.283  20.402  21.771  1.00  0.00     0.014 A 
HETATM    7  C   LIG     1      24.024  20.532  20.403  1.00  0.00     0.024 A 
HETATM    8  C   LIG     1      23.182  21.549  19.942  1.00  0.00     0.034 A 
HETATM    9  C   LIG     1      22.593  22.432  20.852  1.00  0.00     0.024 A 
HETATM   10 CL   LIG     1      22.856  21.708  18.226  1.00  0.00    -0.084 Cl
HETATM   11  C   LIG     1      22.849  22.305  22.220  1.00  0.00     0.014 A 
ENDBRANCH   4   5
BRANCH   4  12
HETATM   12  C   LIG     1      25.045  21.945  24.741  1.00  0.00    -0.022 A 
HETATM   13  C   LIG     1      24.766  23.180  25.347  1.00  0.00     0.014 A 
HETATM   14  C   LIG     1      25.801  23.954  25.881  1.00  0.00     0.024 A 
HETATM   15  C   LIG     1      27.124  23.507  25.803  1.00  0.00     0.034 A 
HETATM   16  C   LIG     1      27.412  22.287  25.184  1.00  0.00     0.024 A 
HETATM   17 CL   LIG     1      28.420  24.481  26.471  1.00  0.00    -0.084 Cl
HETATM   18  C   LIG     1      26.379  21.511  24.650  1.00  0.00     0.014 A 
ENDBRANCH   4  12
TORSDOF 2
ENDMDL
MODEL 7
REMARK VINA RESULT:      -5.1     15.357     16.200
REMARK  2 active torsions:
REMARK  status: ('A' for Active; 'I' for Inactive)
REMARK    1  A    between atoms: C_4  and  C_5 
REMARK    2  A    between atoms: C_4  and  C_12 
ROOT
HETATM    1 CL   LIG     1      21.959  19.243  24.310  1.00  0.00    -0.070 Cl
HETATM    2  C   LIG     1      23.188  20.323  24.963  1.00  0.00     0.115 C 
HETATM    3 CL   LIG     1      23.406  20.275  26.710  1.00  0.00    -0.070 Cl
HETATM    4  C   LIG     1      23.918  21.140  24.172  1.00  0.00     0.018 C 
ENDROOT
BRANCH   4   5
HETATM    5  C   LIG     1      25.031  21.951  24.719  1.00  0.00    -0.022 A 
HETATM    6  C   LIG     1      26.366  21.534  24.568  1.00  0.00     0.014 A 
HETATM    7  C   LIG     1      27.411  22.325  25.057  1.00  0.00     0.024 A 
HETATM    8  C   LIG     1      27.133  23.541  25.690  1.00  0.00     0.034 A 
HETATM    9  C   LIG     1      25.809  23.970  25.827  1.00  0.00     0.024 A 
HETATM   10 CL   LIG     1      28.445  24.532  26.301  1.00  0.00    -0.084 Cl
HETATM   11  C   LIG     1      24.762  23.182  25.339  1.00  0.00     0.014 A 
ENDBRANCH   4   5
BRANCH   4  12
HETATM   12  C   LIG     1      23.637  21.261  22.721  1.00  0.00    -0.022 A 
HETATM   13  C   LIG     1      24.228  20.364  21.817  1.00  0.00     0.014 A 
HETATM   14  C   LIG     1      23.997  20.493  20.444  1.00  0.00     0.024 A 
HETATM   15  C   LIG     1      23.184  21.524  19.962  1.00  0.00     0.034 A 
HETATM   16  C   LIG     1      22.607  22.432  20.855  1.00  0.00     0.024 A 
HETATM   17 CL   LIG     1      22.898  21.684  18.239  1.00  0.00    -0.084 Cl
HETATM   18  C   LIG     1      22.836  22.306  22.228  1.00  0.00     0.014 A 
ENDBRANCH   4  12
TORSDOF 2
ENDMDL
MODEL 8
REMARK VINA RESULT:      -5.1     13.988     15.396
REMARK  2 active torsions:
REMARK  status: ('A' for Active; 'I' for Inactive)
REMARK    1  A    between atoms: C_4  and  C_5 
REMARK    2  A    between atoms: C_4  and  C_12 
ROOT
HETATM    1 CL   LIG     1      27.023  25.348  20.538  1.00  0.00    -0.070 Cl
HETATM    2  C   LIG     1      26.074  24.228  19.564  1.00  0.00     0.115 C 
HETATM    3 CL   LIG     1      25.835  24.683  17.880  1.00  0.00    -0.070 Cl
HETATM    4  C   LIG     1      25.559  23.090  20.080  1.00  0.00     0.018 C 
ENDROOT
BRANCH   4   5
HETATM    5  C   LIG     1      24.871  22.097  19.220  1.00  0.00    -0.022 A 
HETATM    6  C   LIG     1      25.605  21.147  18.489  1.00  0.00     0.014 A 
HETATM    7  C   LIG     1      24.944  20.193  17.709  1.00  0.00     0.024 A 
HETATM    8  C   LIG     1      23.546  20.172  17.664  1.00  0.00     0.034 A 
HETATM    9  C   LIG     1      22.809  21.102  18.403  1.00  0.00     0.024 A 
HETATM   10 CL   LIG     1      22.717  18.972  16.687  1.00  0.00    -0.084 Cl
HETATM   11  C   LIG     1      23.467  22.057  19.184  1.00  0.00     0.014 A 
ENDBRANCH   4   5
BRANCH   4  12
HETATM   12  C   LIG     1      25.662  22.782  21.527  1.00  0.00    -0.022 A 
HETATM   13  C   LIG     1      26.812  22.153  22.029  1.00  0.00     0.014 A 
HETATM   14  C   LIG     1      26.902  21.827  23.385  1.00  0.00     0.024 A 
HETATM   15  C   LIG     1      25.841  22.117  24.249  1.00  0.00     0.034 A 
HETATM   16  C   LIG     1      24.685  22.727  23.753  1.00  0.00     0.024 A 
HETATM   17 CL   LIG     1      25.956  21.706  25.950  1.00  0.00    -0.084 Cl
HETATM   18  C   LIG     1      24.592  23.054  22.397  1.00  0.00     0.014 A 
ENDBRANCH   4  12
TORSDOF 2
ENDMDL
MODEL 9
REMARK VINA RESULT:      -5.1     14.082     15.173
REMARK  2 active torsions:
REMARK  status: ('A' for Active; 'I' for Inactive)
REMARK    1  A    between atoms: C_4  and  C_5 
REMARK    2  A    between atoms: C_4  and  C_12 
ROOT
HETATM    1 CL   LIG     1      25.831  24.602  17.901  1.00  0.00    -0.070 Cl
HETATM    2  C   LIG     1      26.082  24.108  19.573  1.00  0.00     0.115 C 
HETATM    3 CL   LIG     1      27.031  25.209  20.568  1.00  0.00    -0.070 Cl
HETATM    4  C   LIG     1      25.579  22.953  20.062  1.00  0.00     0.018 C 
ENDROOT
BRANCH   4   5
HETATM    5  C   LIG     1      25.691  22.611  21.500  1.00  0.00    -0.022 A 
HETATM    6  C   LIG     1      24.614  22.827  22.377  1.00  0.00     0.014 A 
HETATM    7  C   LIG     1      24.719  22.468  23.725  1.00  0.00     0.024 A 
HETATM    8  C   LIG     1      25.894  21.880  24.204  1.00  0.00     0.034 A 
HETATM    9  C   LIG     1      26.962  21.646  23.334  1.00  0.00     0.024 A 
HETATM   10 CL   LIG     1      26.023  21.427  25.894  1.00  0.00    -0.084 Cl
HETATM   11  C   LIG     1      26.861  22.003  21.986  1.00  0.00     0.014 A 
ENDBRANCH   4   5
BRANCH   4  12
HETATM   12  C   LIG     1      24.890  21.978  19.183  1.00  0.00    -0.022 A 
HETATM   13  C   LIG     1      23.490  21.992  19.083  1.00  0.00     0.014 A 
HETATM   14  C   LIG     1      22.831  21.053  18.284  1.00  0.00     0.024 A 
HETATM   15  C   LIG     1      23.562  20.086  17.587  1.00  0.00     0.034 A 
HETATM   16  C   LIG     1      24.956  20.054  17.697  1.00  0.00     0.024 A 
HETATM   17 CL   LIG     1      22.733  18.909  16.587  1.00  0.00    -0.084 Cl
HETATM   18  C   LIG     1      25.618  20.991  18.495  1.00  0.00     0.014 A 
ENDBRANCH   4  12
TORSDOF 2
ENDMDL
MODEL 10
REMARK VINA RESULT:      -4.8     14.320     15.256
REMARK  2 active torsions:
REMARK  status: ('A' for Active; 'I' for Inactive)
REMARK    1  A    between atoms: C_4  and  C_5 
REMARK    2  A    between atoms: C_4  and  C_12 
ROOT
HETATM    1 CL   LIG     1      23.171  20.869  20.533  1.00  0.00    -0.070 Cl
HETATM    2  C   LIG     1      24.303  21.923  19.690  1.00  0.00     0.115 C 
HETATM    3 CL   LIG     1      24.026  22.128  17.963  1.00  0.00    -0.070 Cl
HETATM    4  C   LIG     1      25.324  22.536  20.329  1.00  0.00     0.018 C 
ENDROOT
BRANCH   4   5
HETATM    5  C   LIG     1      26.192  23.515  19.634  1.00  0.00    -0.022 A 
HETATM    6  C   LIG     1      26.001  24.897  19.810  1.00  0.00     0.014 A 
HETATM    7  C   LIG     1      26.849  25.812  19.178  1.00  0.00     0.024 A 
HETATM    8  C   LIG     1      27.899  25.356  18.375  1.00  0.00     0.034 A 
HETATM    9  C   LIG     1      28.106  23.983  18.210  1.00  0.00     0.024 A 
HETATM   10 CL   LIG     1      28.963  26.505  17.584  1.00  0.00    -0.084 Cl
HETATM   11  C   LIG     1      27.261  23.065  18.842  1.00  0.00     0.014 A 
ENDBRANCH   4   5
BRANCH   4  12
HETATM   12  C   LIG     1      25.620  22.256  21.755  1.00  0.00    -0.022 A 
HETATM   13  C   LIG     1      26.575  21.284  22.094  1.00  0.00     0.014 A 
HETATM   14  C   LIG     1      26.834  20.988  23.436  1.00  0.00     0.024 A 
HETATM   15  C   LIG     1      26.136  21.652  24.449  1.00  0.00     0.034 A 
HETATM   16  C   LIG     1      25.170  22.608  24.119  1.00  0.00     0.024 A 
HETATM   17 CL   LIG     1      26.462  21.278  26.131  1.00  0.00    -0.084 Cl
HETATM   18  C   LIG     1      24.909  22.906  22.778  1.00  0.00     0.014 A 
ENDBRANCH   4  12
TORSDOF 2
ENDMDL
MODEL 11
REMARK VINA RESULT:      -4.8     14.206     15.764
REMARK  2 active torsions:
REMARK  status: ('A' for Active; 'I' for Inactive)
REMARK    1  A    between atoms: C_4  and  C_5 
REMARK    2  A    between atoms: C_4  and  C_12 
ROOT
HETATM    1 CL   LIG     1      24.158  21.932  17.895  1.00  0.00    -0.070 Cl
HETATM    2  C   LIG     1      24.308  21.798  19.645  1.00  0.00     0.115 C 
HETATM    3 CL   LIG     1      23.174  20.706  20.435  1.00  0.00    -0.070 Cl
HETATM    4  C   LIG     1      25.235  22.494  20.340  1.00  0.00     0.018 C 
ENDROOT
BRANCH   4   5
HETATM    5  C   LIG     1      25.431  22.278  21.794  1.00  0.00    -0.022 A 
HETATM    6  C   LIG     1      26.567  21.602  22.274  1.00  0.00     0.014 A 
HETATM    7  C   LIG     1      26.760  21.436  23.649  1.00  0.00     0.024 A 
HETATM    8  C   LIG     1      25.827  21.952  24.555  1.00  0.00     0.034 A 
HETATM    9  C   LIG     1      24.705  22.640  24.085  1.00  0.00     0.024 A 
HETATM   10 CL   LIG     1      26.072  21.743  26.280  1.00  0.00    -0.084 Cl
HETATM   11  C   LIG     1      24.510  22.809  22.711  1.00  0.00     0.014 A 
ENDBRANCH   4   5
BRANCH   4  12
HETATM   12  C   LIG     1      26.098  23.503  19.680  1.00  0.00    -0.022 A 
HETATM   13  C   LIG     1      27.252  23.094  18.992  1.00  0.00     0.014 A 
HETATM   14  C   LIG     1      28.090  24.041  18.396  1.00  0.00     0.024 A 
HETATM   15  C   LIG     1      27.790  25.403  18.492  1.00  0.00     0.034 A 
HETATM   16  C   LIG     1      26.653  25.820  19.192  1.00  0.00     0.024 A 
HETATM   17 CL   LIG     1      28.844  26.590  17.746  1.00  0.00    -0.084 Cl
HETATM   18  C   LIG     1      25.813  24.875  19.788  1.00  0.00     0.014 A 
ENDBRANCH   4  12
TORSDOF 2
ENDMDL
MODEL 12
REMARK VINA RESULT:      -4.8     14.014     15.064
REMARK  2 active torsions:
REMARK  status: ('A' for Active; 'I' for Inactive)
REMARK    1  A    between atoms: C_4  and  C_5 
REMARK    2  A    between atoms: C_4  and  C_12 
ROOT
HETATM    1 CL   LIG     1      23.509  18.755  18.742  1.00  0.00    -0.070 Cl
HETATM    2  C   LIG     1      24.638  20.038  18.317  1.00  0.00     0.115 C 
HETATM    3 CL   LIG     1      25.280  19.990  16.677  1.00  0.00    -0.070 Cl
HETATM    4  C   LIG     1      24.993  21.001  19.197  1.00  0.00     0.018 C 
ENDROOT
BRANCH   4   5
HETATM    5  C   LIG     1      25.845  22.143  18.788  1.00  0.00    -0.022 A 
HETATM    6  C   LIG     1      25.272  23.379  18.437  1.00  0.00     0.014 A 
HETATM    7  C   LIG     1      26.087  24.460  18.088  1.00  0.00     0.024 A 
HETATM    8  C   LIG     1      27.479  24.320  18.097  1.00  0.00     0.034 A 
HETATM    9  C   LIG     1      28.055  23.100  18.462  1.00  0.00     0.024 A 
HETATM   10 CL   LIG     1      28.500  25.678  17.660  1.00  0.00    -0.084 Cl
HETATM   11  C   LIG     1      27.243  22.017  18.813  1.00  0.00     0.014 A 
ENDBRANCH   4   5
BRANCH   4  12
HETATM   12  C   LIG     1      24.544  20.959  20.609  1.00  0.00    -0.022 A 
HETATM   13  C   LIG     1      25.319  20.291  21.571  1.00  0.00     0.014 A 
HETATM   14  C   LIG     1      24.886  20.216  22.898  1.00  0.00     0.024 A 
HETATM   15  C   LIG     1      23.670  20.796  23.273  1.00  0.00     0.034 A 
HETATM   16  C   LIG     1      22.883  21.447  22.318  1.00  0.00     0.024 A 
HETATM   17 CL   LIG     1      23.127  20.699  24.938  1.00  0.00    -0.084 Cl
HETATM   18  C   LIG     1      23.314  21.524  20.990  1.00  0.00     0.014 A 
ENDBRANCH   4  12
TORSDOF 2
ENDMDL
MODEL 13
REMARK VINA RESULT:      -4.7     15.349     16.515
REMARK  2 active torsions:
REMARK  status: ('A' for Active; 'I' for Inactive)
REMARK    1  A    between atoms: C_4  and  C_5 
REMARK    2  A    between atoms: C_4  and  C_12 
ROOT
HETATM    1 CL   LIG     1      27.040  23.574  22.534  1.00  0.00    -0.070 Cl
HETATM    2  C   LIG     1      26.209  22.809  23.887  1.00  0.00     0.115 C 
HETATM    3 CL   LIG     1      27.003  22.943  25.454  1.00  0.00    -0.070 Cl
HETATM    4  C   LIG     1      25.035  22.158  23.731  1.00  0.00     0.018 C 
ENDROOT
BRANCH   4   5
HETATM    5  C   LIG     1      24.287  21.629  24.896  1.00  0.00    -0.022 A 
HETATM    6  C   LIG     1      24.121  22.405  26.057  1.00  0.00     0.014 A 
HETATM    7  C   LIG     1      23.382  21.909  27.136  1.00  0.00     0.024 A 
HETATM    8  C   LIG     1      22.795  20.642  27.060  1.00  0.00     0.034 A 
HETATM    9  C   LIG     1      22.941  19.873  25.902  1.00  0.00     0.024 A 
HETATM   10 CL   LIG     1      21.867  20.022  28.415  1.00  0.00    -0.084 Cl
HETATM   11  C   LIG     1      23.678  20.366  24.821  1.00  0.00     0.014 A 
ENDBRANCH   4   5
BRANCH   4  12
HETATM   12  C   LIG     1      24.443  21.946  22.388  1.00  0.00    -0.022 A 
HETATM   13  C   LIG     1      25.049  21.054  21.489  1.00  0.00     0.014 A 
HETATM   14  C   LIG     1      24.518  20.875  20.208  1.00  0.00     0.024 A 
HETATM   15  C   LIG     1      23.385  21.592  19.811  1.00  0.00     0.034 A 
HETATM   16  C   LIG     1      22.787  22.496  20.694  1.00  0.00     0.024 A 
HETATM   17 CL   LIG     1      22.721  21.367  18.203  1.00  0.00    -0.084 Cl
HETATM   18  C   LIG     1      23.316  22.678  21.976  1.00  0.00     0.014 A 
ENDBRANCH   4  12
TORSDOF 2
ENDMDL
MODEL 14
REMARK VINA RESULT:      -4.7     14.592     15.528
REMARK  2 active torsions:
REMARK  status: ('A' for Active; 'I' for Inactive)
REMARK    1  A    between atoms: C_4  and  C_5 
REMARK    2  A    between atoms: C_4  and  C_12 
ROOT
HETATM    1 CL   LIG     1      22.447  21.411  22.039  1.00  0.00    -0.070 Cl
HETATM    2  C   LIG     1      23.545  21.996  20.792  1.00  0.00     0.115 C 
HETATM    3 CL   LIG     1      22.868  22.132  19.171  1.00  0.00    -0.070 Cl
HETATM    4  C   LIG     1      24.829  22.320  21.062  1.00  0.00     0.018 C 
ENDROOT
BRANCH   4   5
HETATM    5  C   LIG     1      25.704  22.928  20.031  1.00  0.00    -0.022 A 
HETATM    6  C   LIG     1      26.372  22.125  19.090  1.00  0.00     0.014 A 
HETATM    7  C   LIG     1      27.166  22.712  18.100  1.00  0.00     0.024 A 
HETATM    8  C   LIG     1      27.290  24.104  18.034  1.00  0.00     0.034 A 
HETATM    9  C   LIG     1      26.613  24.909  18.955  1.00  0.00     0.024 A 
HETATM   10 CL   LIG     1      28.285  24.838  16.789  1.00  0.00    -0.084 Cl
HETATM   11  C   LIG     1      25.818  24.325  19.946  1.00  0.00     0.014 A 
ENDBRANCH   4   5
BRANCH   4  12
HETATM   12  C   LIG     1      25.419  22.083  22.401  1.00  0.00    -0.022 A 
HETATM   13  C   LIG     1      25.166  22.985  23.447  1.00  0.00     0.014 A 
HETATM   14  C   LIG     1      25.747  22.788  24.704  1.00  0.00     0.024 A 
HETATM   15  C   LIG     1      26.594  21.696  24.923  1.00  0.00     0.034 A 
HETATM   16  C   LIG     1      26.865  20.804  23.881  1.00  0.00     0.024 A 
HETATM   17 CL   LIG     1      27.323  21.453  26.499  1.00  0.00    -0.084 Cl
HETATM   18  C   LIG     1      26.286  20.998  22.623  1.00  0.00     0.014 A 
ENDBRANCH   4  12
TORSDOF 2
ENDMDL
MODEL 15
REMARK VINA RESULT:      -4.7     14.338     15.392
REMARK  2 active torsions:
REMARK  status: ('A' for Active; 'I' for Inactive)
REMARK    1  A    between atoms: C_4  and  C_5 
REMARK    2  A    between atoms: C_4  and  C_12 
ROOT
HETATM    1 CL   LIG     1      25.824  19.965  19.887  1.00  0.00    -0.070 Cl
HETATM    2  C   LIG     1      26.575  21.466  19.352  1.00  0.00     0.115 C 
HETATM    3 CL   LIG     1      27.288  21.440  17.742  1.00  0.00    -0.070 Cl
HETATM    4  C   LIG     1      26.605  22.570  20.132  1.00  0.00     0.018 C 
ENDROOT
BRANCH   4   5
HETATM    5  C   LIG     1      27.128  23.859  19.622  1.00  0.00    -0.022 A 
HETATM    6  C   LIG     1      26.252  24.876  19.204  1.00  0.00     0.014 A 
HETATM    7  C   LIG     1      26.756  26.102  18.758  1.00  0.00     0.024 A 
HETATM    8  C   LIG     1      28.137  26.327  18.739  1.00  0.00     0.034 A 
HETATM    9  C   LIG     1      29.013  25.327  19.170  1.00  0.00     0.024 A 
HETATM   10 CL   LIG     1      28.768  27.867  18.182  1.00  0.00    -0.084 Cl
HETATM   11  C   LIG     1      28.512  24.100  19.617  1.00  0.00     0.014 A 
ENDBRANCH   4   5
BRANCH   4  12
HETATM   12  C   LIG     1      26.113  22.540  21.531  1.00  0.00    -0.022 A 
HETATM   13  C   LIG     1      24.742  22.679  21.794  1.00  0.00     0.014 A 
HETATM   14  C   LIG     1      24.273  22.687  23.111  1.00  0.00     0.024 A 
HETATM   15  C   LIG     1      25.172  22.568  24.176  1.00  0.00     0.034 A 
HETATM   16  C   LIG     1      26.542  22.447  23.923  1.00  0.00     0.024 A 
HETATM   17 CL   LIG     1      24.582  22.581  25.828  1.00  0.00    -0.084 Cl
HETATM   18  C   LIG     1      27.013  22.438  22.607  1.00  0.00     0.014 A 
ENDBRANCH   4  12
TORSDOF 2
ENDMDL
MODEL 16
REMARK VINA RESULT:      -4.7     14.648     15.967
REMARK  2 active torsions:
REMARK  status: ('A' for Active; 'I' for Inactive)
REMARK    1  A    between atoms: C_4  and  C_5 
REMARK    2  A    between atoms: C_4  and  C_12 
ROOT
HETATM    1 CL   LIG     1      27.998  25.478  21.392  1.00  0.00    -0.070 Cl
HETATM    2  C   LIG     1      26.763  24.619  20.476  1.00  0.00     0.115 C 
HETATM    3 CL   LIG     1      26.182  25.425  19.021  1.00  0.00    -0.070 Cl
HETATM    4  C   LIG     1      26.288  23.415  20.866  1.00  0.00     0.018 C 
ENDROOT
BRANCH   4   5
HETATM    5  C   LIG     1      25.342  22.649  20.021  1.00  0.00    -0.022 A 
HETATM    6  C   LIG     1      25.778  22.023  18.839  1.00  0.00     0.014 A 
HETATM    7  C   LIG     1      24.884  21.273  18.068  1.00  0.00     0.024 A 
HETATM    8  C   LIG     1      23.554  21.131  18.476  1.00  0.00     0.034 A 
HETATM    9  C   LIG     1      23.119  21.736  19.659  1.00  0.00     0.024 A 
HETATM   10 CL   LIG     1      22.435  20.188  17.509  1.00  0.00    -0.084 Cl
HETATM   11  C   LIG     1      24.010  22.486  20.433  1.00  0.00     0.014 A 
ENDBRANCH   4   5
BRANCH   4  12
HETATM   12  C   LIG     1      26.694  22.807  22.156  1.00  0.00    -0.022 A 
HETATM   13  C   LIG     1      27.671  21.799  22.178  1.00  0.00     0.014 A 
HETATM   14  C   LIG     1      28.035  21.196  23.386  1.00  0.00     0.024 A 
HETATM   15  C   LIG     1      27.418  21.586  24.579  1.00  0.00     0.034 A 
HETATM   16  C   LIG     1      26.431  22.576  24.563  1.00  0.00     0.024 A 
HETATM   17 CL   LIG     1      27.874  20.826  26.092  1.00  0.00    -0.084 Cl
HETATM   18  C   LIG     1      26.066  23.181  23.356  1.00  0.00     0.014 A 
ENDBRANCH   4  12
TORSDOF 2
ENDMDL
MODEL 17
REMARK VINA RESULT:      -4.6     14.731     15.779
REMARK  2 active torsions:
REMARK  status: ('A' for Active; 'I' for Inactive)
REMARK    1  A    between atoms: C_4  and  C_5 
REMARK    2  A    between atoms: C_4  and  C_12 
ROOT
HETATM    1 CL   LIG     1      25.182  20.144  21.500  1.00  0.00    -0.070 Cl
HETATM    2  C   LIG     1      25.954  21.515  20.709  1.00  0.00     0.115 C 
HETATM    3 CL   LIG     1      26.323  21.311  18.999  1.00  0.00    -0.070 Cl
HETATM    4  C   LIG     1      26.248  22.655  21.374  1.00  0.00     0.018 C 
ENDROOT
BRANCH   4   5
HETATM    5  C   LIG     1      26.783  23.843  20.668  1.00  0.00    -0.022 A 
HETATM    6  C   LIG     1      28.167  24.087  20.618  1.00  0.00     0.014 A 
HETATM    7  C   LIG     1      28.663  25.192  19.918  1.00  0.00     0.024 A 
HETATM    8  C   LIG     1      27.783  26.054  19.255  1.00  0.00     0.034 A 
HETATM    9  C   LIG     1      26.408  25.807  19.286  1.00  0.00     0.024 A 
HETATM   10 CL   LIG     1      28.407  27.439  18.376  1.00  0.00    -0.084 Cl
HETATM   11  C   LIG     1      25.909  24.703  19.983  1.00  0.00     0.014 A 
ENDBRANCH   4   5
BRANCH   4  12
HETATM   12  C   LIG     1      26.047  22.766  22.839  1.00  0.00    -0.022 A 
HETATM   13  C   LIG     1      27.156  22.765  23.700  1.00  0.00     0.014 A 
HETATM   14  C   LIG     1      26.974  22.834  25.084  1.00  0.00     0.024 A 
HETATM   15  C   LIG     1      25.684  22.894  25.620  1.00  0.00     0.034 A 
HETATM   16  C   LIG     1      24.574  22.877  24.771  1.00  0.00     0.024 A 
HETATM   17 CL   LIG     1      25.458  22.979  27.358  1.00  0.00    -0.084 Cl
HETATM   18  C   LIG     1      24.753  22.808  23.386  1.00  0.00     0.014 A 
ENDBRANCH   4  12
TORSDOF 2
ENDMDL
MODEL 18
REMARK VINA RESULT:      -4.6     18.975     19.956
REMARK  2 active torsions:
REMARK  status: ('A' for Active; 'I' for Inactive)
REMARK    1  A    between atoms: C_4  and  C_5 
REMARK    2  A    between atoms: C_4  and  C_12 
ROOT
HETATM    1 CL   LIG     1      28.781  21.942  26.375  1.00  0.00    -0.070 Cl
HETATM    2  C   LIG     1      28.719  23.139  27.665  1.00  0.00     0.115 C 
HETATM    3 CL   LIG     1      30.244  23.927  28.060  1.00  0.00    -0.070 Cl
HETATM    4  C   LIG     1      27.570  23.435  28.314  1.00  0.00     0.018 C 
ENDROOT
BRANCH   4   5
HETATM    5  C   LIG     1      27.508  24.531  29.309  1.00  0.00    -0.022 A 
HETATM    6  C   LIG     1      27.847  24.302  30.654  1.00  0.00     0.014 A 
HETATM    7  C   LIG     1      27.819  25.352  31.578  1.00  0.00     0.024 A 
HETATM    8  C   LIG     1      27.463  26.640  31.164  1.00  0.00     0.034 A 
HETATM    9  C   LIG     1      27.142  26.879  29.824  1.00  0.00     0.024 A 
HETATM   10 CL   LIG     1      27.430  27.956  32.323  1.00  0.00    -0.084 Cl
HETATM   11  C   LIG     1      27.170  25.831  28.898  1.00  0.00     0.014 A 
ENDBRANCH   4   5
BRANCH   4  12
HETATM   12  C   LIG     1      26.322  22.676  28.057  1.00  0.00    -0.022 A 
HETATM   13  C   LIG     1      26.032  21.529  28.813  1.00  0.00     0.014 A 
HETATM   14  C   LIG     1      24.875  20.788  28.554  1.00  0.00     0.024 A 
HETATM   15  C   LIG     1      24.005  21.179  27.532  1.00  0.00     0.034 A 
HETATM   16  C   LIG     1      24.296  22.310  26.762  1.00  0.00     0.024 A 
HETATM   17 CL   LIG     1      22.556  20.247  27.207  1.00  0.00    -0.084 Cl
HETATM   18  C   LIG     1      25.452  23.053  27.019  1.00  0.00     0.014 A 
ENDBRANCH   4  12
TORSDOF 2
ENDMDL
MODEL 19
REMARK VINA RESULT:      -4.6     14.058     15.043
REMARK  2 active torsions:
REMARK  status: ('A' for Active; 'I' for Inactive)
REMARK    1  A    between atoms: C_4  and  C_5 
REMARK    2  A    between atoms: C_4  and  C_12 
ROOT
HETATM    1 CL   LIG     1      27.458  19.927  19.635  1.00  0.00    -0.070 Cl
HETATM    2  C   LIG     1      28.228  21.496  19.414  1.00  0.00     0.115 C 
HETATM    3 CL   LIG     1      29.948  21.464  19.035  1.00  0.00    -0.070 Cl
HETATM    4  C   LIG     1      27.541  22.654  19.529  1.00  0.00     0.018 C 
ENDROOT
BRANCH   4   5
HETATM    5  C   LIG     1      28.172  23.959  19.217  1.00  0.00    -0.022 A 
HETATM    6  C   LIG     1      28.084  24.510  17.927  1.00  0.00     0.014 A 
HETATM    7  C   LIG     1      28.653  25.758  17.654  1.00  0.00     0.024 A 
HETATM    8  C   LIG     1      29.302  26.470  18.668  1.00  0.00     0.034 A 
HETATM    9  C   LIG     1      29.377  25.936  19.957  1.00  0.00     0.024 A 
HETATM   10 CL   LIG     1      30.012  28.037  18.323  1.00  0.00    -0.084 Cl
HETATM   11  C   LIG     1      28.809  24.689  20.234  1.00  0.00     0.014 A 
ENDBRANCH   4   5
BRANCH   4  12
HETATM   12  C   LIG     1      26.126  22.671  19.970  1.00  0.00    -0.022 A 
HETATM   13  C   LIG     1      25.815  22.921  21.316  1.00  0.00     0.014 A 
HETATM   14  C   LIG     1      24.486  22.904  21.748  1.00  0.00     0.024 A 
HETATM   15  C   LIG     1      23.457  22.626  20.843  1.00  0.00     0.034 A 
HETATM   16  C   LIG     1      23.760  22.357  19.505  1.00  0.00     0.024 A 
HETATM   17 CL   LIG     1      21.790  22.602  21.388  1.00  0.00    -0.084 Cl
HETATM   18  C   LIG     1      25.088  22.374  19.070  1.00  0.00     0.014 A 
ENDBRANCH   4  12
TORSDOF 2
ENDMDL
MODEL 20
REMARK VINA RESULT:      -4.6     18.889     20.477
REMARK  2 active torsions:
REMARK  status: ('A' for Active; 'I' for Inactive)
REMARK    1  A    between atoms: C_4  and  C_5 
REMARK    2  A    between atoms: C_4  and  C_12 
ROOT
HETATM    1 CL   LIG     1      30.055  23.757  27.629  1.00  0.00    -0.070 Cl
HETATM    2  C   LIG     1      28.507  22.950  27.390  1.00  0.00     0.115 C 
HETATM    3 CL   LIG     1      28.470  21.708  26.141  1.00  0.00    -0.070 Cl
HETATM    4  C   LIG     1      27.414  23.266  28.120  1.00  0.00     0.018 C 
ENDROOT
BRANCH   4   5
HETATM    5  C   LIG     1      26.155  22.494  27.994  1.00  0.00    -0.022 A 
HETATM    6  C   LIG     1      25.190  22.843  27.033  1.00  0.00     0.014 A 
HETATM    7  C   LIG     1      24.022  22.087  26.899  1.00  0.00     0.024 A 
HETATM    8  C   LIG     1      23.812  20.970  27.716  1.00  0.00     0.034 A 
HETATM    9  C   LIG     1      24.775  20.607  28.661  1.00  0.00     0.024 A 
HETATM   10 CL   LIG     1      22.347  20.021  27.545  1.00  0.00    -0.084 Cl
HETATM   11  C   LIG     1      25.945  21.361  28.797  1.00  0.00     0.014 A 
ENDBRANCH   4   5
BRANCH   4  12
HETATM   12  C   LIG     1      27.427  24.397  29.078  1.00  0.00    -0.022 A 
HETATM   13  C   LIG     1      27.751  24.169  30.425  1.00  0.00     0.014 A 
HETATM   14  C   LIG     1      27.732  25.223  31.343  1.00  0.00     0.024 A 
HETATM   15  C   LIG     1      27.376  26.510  30.927  1.00  0.00     0.034 A 
HETATM   16  C   LIG     1      27.033  26.741  29.591  1.00  0.00     0.024 A 
HETATM   17 CL   LIG     1      27.350  27.831  32.081  1.00  0.00    -0.084 Cl
HETATM   18  C   LIG     1      27.053  25.689  28.671  1.00  0.00     0.014 A 
ENDBRANCH   4  12
TORSDOF 2
ENDMDL
