REMARK  3 active torsions:
REMARK  status: ('A' for Active; 'I' for Inactive)
REMARK    1  A    between atoms: C_2  and  C_4 
REMARK    2  A    between atoms: C_4  and  C_12 
REMARK    3  A    between atoms: C_4  and  C_5 
ROOT
HETATM    1  C   LIG     1       0.032   1.234   0.066  1.00  0.00     0.084 C 
ENDROOT
BRANCH   1   2
HETATM    2  C   LIG     1       0.026   2.240  -1.109  1.00  0.00     0.191 C 
HETATM    3 CL   LIG     1      -1.388   3.325  -1.007  1.00  0.00    -0.107 Cl
HETATM    4 CL   LIG     1       1.496   3.254  -1.081  1.00  0.00    -0.107 Cl
ENDBRANCH   1   2
BRANCH   1   5
HETATM    5  C   LIG     1       1.258   0.334   0.076  1.00  0.00    -0.047 A 
HETATM    6  C   LIG     1       1.649  -0.401  -1.062  1.00  0.00     0.009 A 
HETATM    7  C   LIG     1       2.772  -1.232  -1.019  1.00  0.00     0.024 A 
HETATM    8  C   LIG     1       3.518  -1.345   0.157  1.00  0.00     0.034 A 
HETATM    9  C   LIG     1       3.140  -0.625   1.293  1.00  0.00     0.024 A 
HETATM   10 CL   LIG     1       4.927  -2.389   0.207  1.00  0.00    -0.084 Cl
HETATM   11  C   LIG     1       2.018   0.207   1.255  1.00  0.00     0.009 A 
ENDBRANCH   1   5
BRANCH   1  12
HETATM   12  C   LIG     1      -1.235   0.395   0.140  1.00  0.00    -0.047 A 
HETATM   13  C   LIG     1      -1.718  -0.319  -0.975  1.00  0.00     0.009 A 
HETATM   14  C   LIG     1      -2.878  -1.093  -0.874  1.00  0.00     0.024 A 
HETATM   15  C   LIG     1      -3.567  -1.171   0.338  1.00  0.00     0.034 A 
HETATM   16  C   LIG     1      -3.096  -0.472   1.453  1.00  0.00     0.024 A 
HETATM   17 CL   LIG     1      -5.021  -2.145   0.462  1.00  0.00    -0.084 Cl
HETATM   18  C   LIG     1      -1.938   0.304   1.357  1.00  0.00     0.009 A 
ENDBRANCH   1  12
TORSDOF 3
