REMARK  2 active torsions:
REMARK  status: ('A' for Active; 'I' for Inactive)
REMARK    1  A    between atoms: C_4  and  C_5 
REMARK    2  A    between atoms: C_4  and  C_12 
ROOT
HETATM    1 CL   LIG     1       1.634  -0.593  -3.383  1.00  0.00    -0.070 Cl
HETATM    2  C   LIG     1       0.104  -0.422  -2.527  1.00  0.00     0.115 C 
HETATM    3 CL   LIG     1      -1.350  -0.557  -3.512  1.00  0.00    -0.070 Cl
HETATM    4  C   LIG     1       0.049  -0.199  -1.195  1.00  0.00     0.018 C 
ENDROOT
BRANCH   4   5
HETATM    5  C   LIG     1      -1.243  -0.182  -0.469  1.00  0.00    -0.022 A 
HETATM    6  C   LIG     1      -2.093  -1.302  -0.487  1.00  0.00     0.014 A 
HETATM    7  C   LIG     1      -3.293  -1.288   0.231  1.00  0.00     0.024 A 
HETATM    8  C   LIG     1      -3.648  -0.162   0.981  1.00  0.00     0.034 A 
HETATM    9  C   LIG     1      -2.799   0.948   1.018  1.00  0.00     0.024 A 
HETATM   10 CL   LIG     1      -5.153  -0.147   1.883  1.00  0.00    -0.084 Cl
HETATM   11  C   LIG     1      -1.598   0.937   0.302  1.00  0.00     0.014 A 
ENDBRANCH   4   5
BRANCH   4  12
HETATM   12  C   LIG     1       1.279   0.037  -0.401  1.00  0.00    -0.022 A 
HETATM   13  C   LIG     1       1.556  -0.767   0.716  1.00  0.00     0.014 A 
HETATM   14  C   LIG     1       2.695  -0.529   1.491  1.00  0.00     0.024 A 
HETATM   15  C   LIG     1       3.560   0.520   1.164  1.00  0.00     0.034 A 
HETATM   16  C   LIG     1       3.281   1.337   0.064  1.00  0.00     0.024 A 
HETATM   17 CL   LIG     1       4.987   0.818   2.139  1.00  0.00    -0.084 Cl
HETATM   18  C   LIG     1       2.143   1.101  -0.713  1.00  0.00     0.014 A 
ENDBRANCH   4  12
TORSDOF 2
