MODEL 1
REMARK VINA RESULT:      -5.3      0.000      0.000
REMARK  1 active torsions:
REMARK  status: ('A' for Active; 'I' for Inactive)
REMARK    1  A    between atoms: O_1  and  C_2 
ROOT
HETATM    1  C   LIG     1      17.482  37.524  25.530  1.00  0.00     0.161 A 
HETATM    2  N   LIG     1      16.973  36.827  24.478  1.00  0.00    -0.237 NA
HETATM    3  C   LIG     1      17.106  35.476  24.386  1.00  0.00     0.119 A 
HETATM    4  C   LIG     1      17.777  34.768  25.387  1.00  0.00     0.019 A 
HETATM    5  C   LIG     1      18.307  35.465  26.475  1.00  0.00     0.006 A 
HETATM    6  C   LIG     1      18.161  36.851  26.551  1.00  0.00     0.058 A 
ENDROOT
BRANCH   1   7
HETATM    7  O   LIG     1      17.329  38.906  25.592  1.00  0.00    -0.345 OA
HETATM    8  H   LIG     1      18.118  39.523  25.440  1.00  0.00     0.219 HD
ENDBRANCH   1   7
TORSDOF 1
ENDMDL
MODEL 2
REMARK VINA RESULT:      -5.1      1.060      1.896
REMARK  1 active torsions:
REMARK  status: ('A' for Active; 'I' for Inactive)
REMARK    1  A    between atoms: O_1  and  C_2 
ROOT
HETATM    1  C   LIG     1      17.197  37.281  24.965  1.00  0.00     0.161 A 
HETATM    2  N   LIG     1      17.830  37.340  26.169  1.00  0.00    -0.237 NA
HETATM    3  C   LIG     1      18.284  36.219  26.792  1.00  0.00     0.119 A 
HETATM    4  C   LIG     1      18.105  34.967  26.199  1.00  0.00     0.019 A 
HETATM    5  C   LIG     1      17.458  34.884  24.964  1.00  0.00     0.006 A 
HETATM    6  C   LIG     1      16.999  36.046  24.341  1.00  0.00     0.058 A 
ENDROOT
BRANCH   1   7
HETATM    7  O   LIG     1      16.746  38.448  24.356  1.00  0.00    -0.345 OA
HETATM    8  H   LIG     1      15.806  38.789  24.520  1.00  0.00     0.219 HD
ENDBRANCH   1   7
TORSDOF 1
ENDMDL
MODEL 3
REMARK VINA RESULT:      -5.1      5.419      6.069
REMARK  1 active torsions:
REMARK  status: ('A' for Active; 'I' for Inactive)
REMARK    1  A    between atoms: O_1  and  C_2 
ROOT
HETATM    1  C   LIG     1      19.699  38.785  19.760  1.00  0.00     0.161 A 
HETATM    2  N   LIG     1      19.050  39.422  20.773  1.00  0.00    -0.237 NA
HETATM    3  C   LIG     1      18.083  38.802  21.503  1.00  0.00     0.119 A 
HETATM    4  C   LIG     1      17.734  37.479  21.221  1.00  0.00     0.019 A 
HETATM    5  C   LIG     1      18.387  36.807  20.186  1.00  0.00     0.006 A 
HETATM    6  C   LIG     1      19.376  37.461  19.448  1.00  0.00     0.058 A 
ENDROOT
BRANCH   1   7
HETATM    7  O   LIG     1      20.682  39.450  19.034  1.00  0.00    -0.345 OA
HETATM    8  H   LIG     1      21.085  39.033  18.203  1.00  0.00     0.219 HD
ENDBRANCH   1   7
TORSDOF 1
ENDMDL
MODEL 4
REMARK VINA RESULT:      -5.0      5.462      5.974
REMARK  1 active torsions:
REMARK  status: ('A' for Active; 'I' for Inactive)
REMARK    1  A    between atoms: O_1  and  C_2 
ROOT
HETATM    1  C   LIG     1      19.683  38.784  19.737  1.00  0.00     0.161 A 
HETATM    2  N   LIG     1      19.411  37.484  19.443  1.00  0.00    -0.237 NA
HETATM    3  C   LIG     1      18.460  36.784  20.117  1.00  0.00     0.119 A 
HETATM    4  C   LIG     1      17.732  37.397  21.140  1.00  0.00     0.019 A 
HETATM    5  C   LIG     1      17.995  38.731  21.458  1.00  0.00     0.006 A 
HETATM    6  C   LIG     1      18.977  39.433  20.755  1.00  0.00     0.058 A 
ENDROOT
BRANCH   1   7
HETATM    7  O   LIG     1      20.664  39.471  19.027  1.00  0.00    -0.345 OA
HETATM    8  H   LIG     1      21.062  40.329  19.389  1.00  0.00     0.219 HD
ENDBRANCH   1   7
TORSDOF 1
ENDMDL
MODEL 5
REMARK VINA RESULT:      -4.6      1.357      2.339
REMARK  1 active torsions:
REMARK  status: ('A' for Active; 'I' for Inactive)
REMARK    1  A    between atoms: O_1  and  C_2 
ROOT
HETATM    1  C   LIG     1      17.156  37.495  24.750  1.00  0.00     0.161 A 
HETATM    2  N   LIG     1      17.326  36.261  25.299  1.00  0.00    -0.237 NA
HETATM    3  C   LIG     1      17.253  35.129  24.549  1.00  0.00     0.119 A 
HETATM    4  C   LIG     1      16.998  35.214  23.177  1.00  0.00     0.019 A 
HETATM    5  C   LIG     1      16.820  36.470  22.593  1.00  0.00     0.006 A 
HETATM    6  C   LIG     1      16.898  37.620  23.381  1.00  0.00     0.058 A 
ENDROOT
BRANCH   1   7
HETATM    7  O   LIG     1      17.237  38.632  25.548  1.00  0.00    -0.345 OA
HETATM    8  H   LIG     1      16.762  39.487  25.282  1.00  0.00     0.219 HD
ENDBRANCH   1   7
TORSDOF 1
ENDMDL
MODEL 6
REMARK VINA RESULT:      -4.6      3.763      4.205
REMARK  1 active torsions:
REMARK  status: ('A' for Active; 'I' for Inactive)
REMARK    1  A    between atoms: O_1  and  C_2 
ROOT
HETATM    1  C   LIG     1      16.159  37.882  22.704  1.00  0.00     0.161 A 
HETATM    2  N   LIG     1      16.317  36.690  22.067  1.00  0.00    -0.237 NA
HETATM    3  C   LIG     1      17.308  36.492  21.157  1.00  0.00     0.119 A 
HETATM    4  C   LIG     1      18.197  37.528  20.853  1.00  0.00     0.019 A 
HETATM    5  C   LIG     1      18.052  38.759  21.495  1.00  0.00     0.006 A 
HETATM    6  C   LIG     1      17.028  38.942  22.426  1.00  0.00     0.058 A 
ENDROOT
BRANCH   1   7
HETATM    7  O   LIG     1      15.134  38.049  23.630  1.00  0.00    -0.345 OA
HETATM    8  H   LIG     1      15.162  38.805  24.305  1.00  0.00     0.219 HD
ENDBRANCH   1   7
TORSDOF 1
ENDMDL
MODEL 7
REMARK VINA RESULT:      -4.6      1.702      2.510
REMARK  1 active torsions:
REMARK  status: ('A' for Active; 'I' for Inactive)
REMARK    1  A    between atoms: O_1  and  C_2 
ROOT
HETATM    1  C   LIG     1      17.430  36.244  25.514  1.00  0.00     0.161 A 
HETATM    2  N   LIG     1      17.176  37.433  24.901  1.00  0.00    -0.237 NA
HETATM    3  C   LIG     1      16.871  37.501  23.577  1.00  0.00     0.119 A 
HETATM    4  C   LIG     1      16.812  36.334  22.810  1.00  0.00     0.019 A 
HETATM    5  C   LIG     1      17.070  35.105  23.420  1.00  0.00     0.006 A 
HETATM    6  C   LIG     1      17.382  35.055  24.780  1.00  0.00     0.058 A 
ENDROOT
BRANCH   1   7
HETATM    7  O   LIG     1      17.739  36.210  26.871  1.00  0.00    -0.345 OA
HETATM    8  H   LIG     1      17.183  36.727  27.543  1.00  0.00     0.219 HD
ENDBRANCH   1   7
TORSDOF 1
ENDMDL
MODEL 8
REMARK VINA RESULT:      -4.5      4.821      5.629
REMARK  1 active torsions:
REMARK  status: ('A' for Active; 'I' for Inactive)
REMARK    1  A    between atoms: O_1  and  C_2 
ROOT
HETATM    1  C   LIG     1      17.692  37.584  21.318  1.00  0.00     0.161 A 
HETATM    2  N   LIG     1      18.232  38.833  21.353  1.00  0.00    -0.237 NA
HETATM    3  C   LIG     1      19.216  39.209  20.492  1.00  0.00     0.119 A 
HETATM    4  C   LIG     1      19.697  38.305  19.540  1.00  0.00     0.019 A 
HETATM    5  C   LIG     1      19.156  37.019  19.488  1.00  0.00     0.006 A 
HETATM    6  C   LIG     1      18.148  36.652  20.381  1.00  0.00     0.058 A 
ENDROOT
BRANCH   1   7
HETATM    7  O   LIG     1      16.687  37.233  22.214  1.00  0.00    -0.345 OA
HETATM    8  H   LIG     1      16.562  36.270  22.503  1.00  0.00     0.219 HD
ENDBRANCH   1   7
TORSDOF 1
ENDMDL
MODEL 9
REMARK VINA RESULT:      -4.4      4.642      5.385
REMARK  1 active torsions:
REMARK  status: ('A' for Active; 'I' for Inactive)
REMARK    1  A    between atoms: O_1  and  C_2 
ROOT
HETATM    1  C   LIG     1      18.419  37.238  20.277  1.00  0.00     0.161 A 
HETATM    2  N   LIG     1      17.473  36.750  21.125  1.00  0.00    -0.237 NA
HETATM    3  C   LIG     1      16.996  37.488  22.164  1.00  0.00     0.119 A 
HETATM    4  C   LIG     1      17.477  38.782  22.382  1.00  0.00     0.019 A 
HETATM    5  C   LIG     1      18.449  39.302  21.524  1.00  0.00     0.006 A 
HETATM    6  C   LIG     1      18.926  38.528  20.464  1.00  0.00     0.058 A 
ENDROOT
BRANCH   1   7
HETATM    7  O   LIG     1      18.885  36.455  19.225  1.00  0.00    -0.345 OA
HETATM    8  H   LIG     1      19.698  35.861  19.340  1.00  0.00     0.219 HD
ENDBRANCH   1   7
TORSDOF 1
ENDMDL
MODEL 10
REMARK VINA RESULT:      -4.3      5.134      5.830
REMARK  1 active torsions:
REMARK  status: ('A' for Active; 'I' for Inactive)
REMARK    1  A    between atoms: O_1  and  C_2 
ROOT
HETATM    1  C   LIG     1      17.920  36.772  20.480  1.00  0.00     0.161 A 
HETATM    2  N   LIG     1      18.876  37.011  19.542  1.00  0.00    -0.237 NA
HETATM    3  C   LIG     1      19.597  38.165  19.535  1.00  0.00     0.119 A 
HETATM    4  C   LIG     1      19.364  39.142  20.507  1.00  0.00     0.019 A 
HETATM    5  C   LIG     1      18.386  38.917  21.478  1.00  0.00     0.006 A 
HETATM    6  C   LIG     1      17.657  37.727  21.468  1.00  0.00     0.058 A 
ENDROOT
BRANCH   1   7
HETATM    7  O   LIG     1      17.201  35.581  20.457  1.00  0.00    -0.345 OA
HETATM    8  H   LIG     1      16.404  35.443  21.068  1.00  0.00     0.219 HD
ENDBRANCH   1   7
TORSDOF 1
ENDMDL
MODEL 11
REMARK VINA RESULT:      -4.3     10.577     11.567
REMARK  1 active torsions:
REMARK  status: ('A' for Active; 'I' for Inactive)
REMARK    1  A    between atoms: O_1  and  C_2 
ROOT
HETATM    1  C   LIG     1      14.100  31.635  16.734  1.00  0.00     0.161 A 
HETATM    2  N   LIG     1      15.195  32.266  16.229  1.00  0.00    -0.237 NA
HETATM    3  C   LIG     1      15.736  31.908  15.033  1.00  0.00     0.119 A 
HETATM    4  C   LIG     1      15.168  30.870  14.290  1.00  0.00     0.019 A 
HETATM    5  C   LIG     1      14.045  30.209  14.790  1.00  0.00     0.006 A 
HETATM    6  C   LIG     1      13.504  30.590  16.020  1.00  0.00     0.058 A 
ENDROOT
BRANCH   1   7
HETATM    7  O   LIG     1      13.572  32.027  17.960  1.00  0.00    -0.345 OA
HETATM    8  H   LIG     1      12.877  32.762  18.016  1.00  0.00     0.219 HD
ENDBRANCH   1   7
TORSDOF 1
ENDMDL
MODEL 12
REMARK VINA RESULT:      -4.3      4.113      4.471
REMARK  1 active torsions:
REMARK  status: ('A' for Active; 'I' for Inactive)
REMARK    1  A    between atoms: O_1  and  C_2 
ROOT
HETATM    1  C   LIG     1      18.215  38.683  21.294  1.00  0.00     0.161 A 
HETATM    2  N   LIG     1      18.474  37.650  20.446  1.00  0.00    -0.237 NA
HETATM    3  C   LIG     1      17.836  36.454  20.562  1.00  0.00     0.119 A 
HETATM    4  C   LIG     1      16.886  36.262  21.569  1.00  0.00     0.019 A 
HETATM    5  C   LIG     1      16.606  37.309  22.450  1.00  0.00     0.006 A 
HETATM    6  C   LIG     1      17.273  38.528  22.316  1.00  0.00     0.058 A 
ENDROOT
BRANCH   1   7
HETATM    7  O   LIG     1      18.887  39.892  21.147  1.00  0.00    -0.345 OA
HETATM    8  H   LIG     1      18.777  40.634  21.829  1.00  0.00     0.219 HD
ENDBRANCH   1   7
TORSDOF 1
ENDMDL
MODEL 13
REMARK VINA RESULT:      -4.3     11.266     12.323
REMARK  1 active torsions:
REMARK  status: ('A' for Active; 'I' for Inactive)
REMARK    1  A    between atoms: O_1  and  C_2 
ROOT
HETATM    1  C   LIG     1      15.917  31.827  13.971  1.00  0.00     0.161 A 
HETATM    2  N   LIG     1      15.805  32.618  15.072  1.00  0.00    -0.237 NA
HETATM    3  C   LIG     1      14.967  32.301  16.096  1.00  0.00     0.119 A 
HETATM    4  C   LIG     1      14.193  31.139  16.034  1.00  0.00     0.019 A 
HETATM    5  C   LIG     1      14.294  30.313  14.912  1.00  0.00     0.006 A 
HETATM    6  C   LIG     1      15.159  30.656  13.872  1.00  0.00     0.058 A 
ENDROOT
BRANCH   1   7
HETATM    7  O   LIG     1      16.785  32.182  12.942  1.00  0.00    -0.345 OA
HETATM    8  H   LIG     1      16.633  31.849  11.997  1.00  0.00     0.219 HD
ENDBRANCH   1   7
TORSDOF 1
ENDMDL
MODEL 14
REMARK VINA RESULT:      -4.3     10.502     11.544
REMARK  1 active torsions:
REMARK  status: ('A' for Active; 'I' for Inactive)
REMARK    1  A    between atoms: O_1  and  C_2 
ROOT
HETATM    1  C   LIG     1      13.443  30.975  16.339  1.00  0.00     0.161 A 
HETATM    2  N   LIG     1      13.833  32.083  17.027  1.00  0.00    -0.237 NA
HETATM    3  C   LIG     1      14.937  32.793  16.670  1.00  0.00     0.119 A 
HETATM    4  C   LIG     1      15.704  32.391  15.572  1.00  0.00     0.019 A 
HETATM    5  C   LIG     1      15.321  31.257  14.853  1.00  0.00     0.006 A 
HETATM    6  C   LIG     1      14.185  30.541  15.236  1.00  0.00     0.058 A 
ENDROOT
BRANCH   1   7
HETATM    7  O   LIG     1      12.308  30.272  16.732  1.00  0.00    -0.345 OA
HETATM    8  H   LIG     1      11.434  30.375  16.230  1.00  0.00     0.219 HD
ENDBRANCH   1   7
TORSDOF 1
ENDMDL
MODEL 15
REMARK VINA RESULT:      -4.2      3.325      4.112
REMARK  1 active torsions:
REMARK  status: ('A' for Active; 'I' for Inactive)
REMARK    1  A    between atoms: O_1  and  C_2 
ROOT
HETATM    1  C   LIG     1      18.127  38.651  21.901  1.00  0.00     0.161 A 
HETATM    2  N   LIG     1      17.478  38.382  23.067  1.00  0.00    -0.237 NA
HETATM    3  C   LIG     1      16.838  37.199  23.271  1.00  0.00     0.119 A 
HETATM    4  C   LIG     1      16.834  36.223  22.271  1.00  0.00     0.019 A 
HETATM    5  C   LIG     1      17.493  36.479  21.066  1.00  0.00     0.006 A 
HETATM    6  C   LIG     1      18.144  37.699  20.876  1.00  0.00     0.058 A 
ENDROOT
BRANCH   1   7
HETATM    7  O   LIG     1      18.772  39.871  21.726  1.00  0.00    -0.345 OA
HETATM    8  H   LIG     1      19.148  40.135  20.823  1.00  0.00     0.219 HD
ENDBRANCH   1   7
TORSDOF 1
ENDMDL
MODEL 16
REMARK VINA RESULT:      -4.1      9.951     10.978
REMARK  1 active torsions:
REMARK  status: ('A' for Active; 'I' for Inactive)
REMARK    1  A    between atoms: O_1  and  C_2 
ROOT
HETATM    1  C   LIG     1      14.407  32.430  17.022  1.00  0.00     0.161 A 
HETATM    2  N   LIG     1      13.275  31.682  17.133  1.00  0.00    -0.237 NA
HETATM    3  C   LIG     1      12.979  30.699  16.240  1.00  0.00     0.119 A 
HETATM    4  C   LIG     1      13.845  30.435  15.176  1.00  0.00     0.019 A 
HETATM    5  C   LIG     1      15.012  31.191  15.044  1.00  0.00     0.006 A 
HETATM    6  C   LIG     1      15.298  32.196  15.970  1.00  0.00     0.058 A 
ENDROOT
BRANCH   1   7
HETATM    7  O   LIG     1      14.678  33.428  17.952  1.00  0.00    -0.345 OA
HETATM    8  H   LIG     1      14.435  33.307  18.929  1.00  0.00     0.219 HD
ENDBRANCH   1   7
TORSDOF 1
ENDMDL
MODEL 17
REMARK VINA RESULT:      -4.1     10.960     11.786
REMARK  1 active torsions:
REMARK  status: ('A' for Active; 'I' for Inactive)
REMARK    1  A    between atoms: O_1  and  C_2 
ROOT
HETATM    1  C   LIG     1      16.133  32.274  15.276  1.00  0.00     0.161 A 
HETATM    2  N   LIG     1      16.222  31.480  14.174  1.00  0.00    -0.237 NA
HETATM    3  C   LIG     1      15.309  30.503  13.923  1.00  0.00     0.119 A 
HETATM    4  C   LIG     1      14.246  30.294  14.806  1.00  0.00     0.019 A 
HETATM    5  C   LIG     1      14.136  31.097  15.943  1.00  0.00     0.006 A 
HETATM    6  C   LIG     1      15.084  32.094  16.183  1.00  0.00     0.058 A 
ENDROOT
BRANCH   1   7
HETATM    7  O   LIG     1      17.085  33.263  15.503  1.00  0.00    -0.345 OA
HETATM    8  H   LIG     1      17.986  33.233  15.040  1.00  0.00     0.219 HD
ENDBRANCH   1   7
TORSDOF 1
ENDMDL
MODEL 18
REMARK VINA RESULT:      -4.0      2.542      3.579
REMARK  1 active torsions:
REMARK  status: ('A' for Active; 'I' for Inactive)
REMARK    1  A    between atoms: O_1  and  C_2 
ROOT
HETATM    1  C   LIG     1      16.981  36.056  22.990  1.00  0.00     0.161 A 
HETATM    2  N   LIG     1      17.205  35.813  24.310  1.00  0.00    -0.237 NA
HETATM    3  C   LIG     1      17.419  36.824  25.195  1.00  0.00     0.119 A 
HETATM    4  C   LIG     1      17.411  38.152  24.757  1.00  0.00     0.019 A 
HETATM    5  C   LIG     1      17.182  38.422  23.406  1.00  0.00     0.006 A 
HETATM    6  C   LIG     1      16.966  37.371  22.514  1.00  0.00     0.058 A 
ENDROOT
BRANCH   1   7
HETATM    7  O   LIG     1      16.766  34.998  22.112  1.00  0.00    -0.345 OA
HETATM    8  H   LIG     1      16.213  34.196  22.390  1.00  0.00     0.219 HD
ENDBRANCH   1   7
TORSDOF 1
ENDMDL
MODEL 19
REMARK VINA RESULT:      -3.9      3.071      3.671
REMARK  1 active torsions:
REMARK  status: ('A' for Active; 'I' for Inactive)
REMARK    1  A    between atoms: O_1  and  C_2 
ROOT
HETATM    1  C   LIG     1      15.898  37.130  22.801  1.00  0.00     0.161 A 
HETATM    2  N   LIG     1      14.925  36.750  21.929  1.00  0.00    -0.237 NA
HETATM    3  C   LIG     1      15.009  35.586  21.229  1.00  0.00     0.119 A 
HETATM    4  C   LIG     1      16.114  34.747  21.395  1.00  0.00     0.019 A 
HETATM    5  C   LIG     1      17.125  35.120  22.284  1.00  0.00     0.006 A 
HETATM    6  C   LIG     1      17.020  36.318  22.993  1.00  0.00     0.058 A 
ENDROOT
BRANCH   1   7
HETATM    7  O   LIG     1      15.780  38.327  23.500  1.00  0.00    -0.345 OA
HETATM    8  H   LIG     1      15.139  39.048  23.191  1.00  0.00     0.219 HD
ENDBRANCH   1   7
TORSDOF 1
ENDMDL
MODEL 20
REMARK VINA RESULT:      -3.8     11.285     11.996
REMARK  1 active torsions:
REMARK  status: ('A' for Active; 'I' for Inactive)
REMARK    1  A    between atoms: O_1  and  C_2 
ROOT
HETATM    1  C   LIG     1      15.231  31.096  14.545  1.00  0.00     0.161 A 
HETATM    2  N   LIG     1      14.089  30.410  14.822  1.00  0.00    -0.237 NA
HETATM    3  C   LIG     1      13.334  30.693  15.917  1.00  0.00     0.119 A 
HETATM    4  C   LIG     1      13.725  31.710  16.793  1.00  0.00     0.019 A 
HETATM    5  C   LIG     1      14.894  32.426  16.528  1.00  0.00     0.006 A 
HETATM    6  C   LIG     1      15.655  32.120  15.398  1.00  0.00     0.058 A 
ENDROOT
BRANCH   1   7
HETATM    7  O   LIG     1      15.979  30.780  13.415  1.00  0.00    -0.345 OA
HETATM    8  H   LIG     1      15.526  30.499  12.554  1.00  0.00     0.219 HD
ENDBRANCH   1   7
TORSDOF 1
ENDMDL
