REMARK  1 active torsions:
REMARK  status: ('A' for Active; 'I' for Inactive)
REMARK    1  A    between atoms: O_1  and  C_2 
ROOT
HETATM    1  C   LIG     1      -1.060  -0.537  -0.023  1.00  0.00     0.161 A 
HETATM    2  N   LIG     1       0.011  -1.368   0.099  1.00  0.00    -0.237 NA
HETATM    3  C   LIG     1       1.284  -0.890   0.139  1.00  0.00     0.119 A 
HETATM    4  C   LIG     1       1.519   0.485   0.054  1.00  0.00     0.019 A 
HETATM    5  C   LIG     1       0.434   1.355  -0.072  1.00  0.00     0.006 A 
HETATM    6  C   LIG     1      -0.865   0.845  -0.112  1.00  0.00     0.058 A 
ENDROOT
BRANCH   1   7
HETATM    7  O   LIG     1      -2.349  -1.060  -0.061  1.00  0.00    -0.345 OA
HETATM    8  H   LIG     1      -2.506  -2.059   0.002  1.00  0.00     0.219 HD
ENDBRANCH   1   7
TORSDOF 1
