REMARK  3 active torsions:
REMARK  status: ('A' for Active; 'I' for Inactive)
REMARK    1  A    between atoms: O_2  and  C_3 
REMARK    2  A    between atoms: C_3  and  C_4 
REMARK    3  A    between atoms: C_7  and  N_8 
ROOT
HETATM    1  C   LIG     1       0.157   0.388  -0.372  1.00  0.00     0.065 A 
HETATM    2  C   LIG     1      -0.614  -0.676   0.164  1.00  0.00     0.076 A 
HETATM    3 CL   LIG     1       0.117  -2.254   0.485  1.00  0.00    -0.081 Cl
HETATM    4  C   LIG     1      -1.998  -0.495   0.389  1.00  0.00     0.050 A 
HETATM    5  C   LIG     1      -2.600   0.729   0.069  1.00  0.00     0.054 A 
HETATM    6  C   LIG     1      -1.847   1.768  -0.474  1.00  0.00     0.037 A 
HETATM    7 CL   LIG     1      -2.618   3.292  -0.875  1.00  0.00    -0.084 Cl
HETATM    8  C   LIG     1      -0.481   1.599  -0.695  1.00  0.00     0.043 A 
ENDROOT
BRANCH   1   9
HETATM    9  C   LIG     1       1.619   0.276  -0.605  1.00  0.00     0.294 C 
HETATM   10  O   LIG     1       2.163   0.975  -1.504  1.00  0.00    -0.259 OA
BRANCH   9  11
HETATM   11  O   LIG     1       2.402  -0.566   0.191  1.00  0.00    -0.322 OA
HETATM   12  C   LIG     1       3.808  -0.702   0.014  1.00  0.00     0.213 C 
ENDBRANCH   9  11
ENDBRANCH   1   9
BRANCH   4  13
HETATM   13  N   LIG     1      -2.812  -1.542   0.935  1.00  0.00    -0.398 N 
HETATM   14  H   LIG     1      -2.420  -2.467   1.214  1.00  0.00     0.156 HD
HETATM   15  H   LIG     1      -3.836  -1.395   1.081  1.00  0.00     0.156 HD
ENDBRANCH   4  13
TORSDOF 3
