MODEL 1
REMARK VINA RESULT:      -6.6      0.000      0.000
REMARK  3 active torsions:
REMARK  status: ('A' for Active; 'I' for Inactive)
REMARK    1  A    between atoms: O_2  and  C_3 
REMARK    2  A    between atoms: C_3  and  C_4 
REMARK    3  A    between atoms: C_7  and  N_8 
ROOT
HETATM    1  C   LIG     1      16.821  36.370  23.127  1.00  0.00     0.065 A 
HETATM    2  C   LIG     1      16.816  37.725  23.548  1.00  0.00     0.076 A 
HETATM    3 CL   LIG     1      16.369  39.021  22.430  1.00  0.00    -0.081 Cl
HETATM    4  C   LIG     1      17.233  38.054  24.858  1.00  0.00     0.050 A 
HETATM    5  C   LIG     1      17.659  37.040  25.727  1.00  0.00     0.054 A 
HETATM    6  C   LIG     1      17.681  35.711  25.308  1.00  0.00     0.037 A 
HETATM    7 CL   LIG     1      18.223  34.456  26.406  1.00  0.00    -0.084 Cl
HETATM    8  C   LIG     1      17.268  35.379  24.019  1.00  0.00     0.043 A 
ENDROOT
BRANCH   1   9
HETATM    9  C   LIG     1      16.369  35.952  21.776  1.00  0.00     0.294 C 
HETATM   10  O   LIG     1      15.134  35.903  21.518  1.00  0.00    -0.259 OA
BRANCH   9  11
HETATM   11  O   LIG     1      17.300  35.653  20.776  1.00  0.00    -0.322 OA
HETATM   12  C   LIG     1      18.178  36.630  20.227  1.00  0.00     0.213 C 
ENDBRANCH   9  11
ENDBRANCH   1   9
BRANCH   4  13
HETATM   13  N   LIG     1      17.237  39.409  25.326  1.00  0.00    -0.398 N 
HETATM   14  H   LIG     1      16.864  39.680  26.261  1.00  0.00     0.156 HD
HETATM   15  H   LIG     1      17.635  40.173  24.733  1.00  0.00     0.156 HD
ENDBRANCH   4  13
TORSDOF 3
ENDMDL
MODEL 2
REMARK VINA RESULT:      -6.3      3.334      4.448
REMARK  3 active torsions:
REMARK  status: ('A' for Active; 'I' for Inactive)
REMARK    1  A    between atoms: O_2  and  C_3 
REMARK    2  A    between atoms: C_3  and  C_4 
REMARK    3  A    between atoms: C_7  and  N_8 
ROOT
HETATM    1  C   LIG     1      16.765  37.497  22.391  1.00  0.00     0.065 A 
HETATM    2  C   LIG     1      17.784  37.591  21.407  1.00  0.00     0.076 A 
HETATM    3 CL   LIG     1      18.888  38.971  21.374  1.00  0.00    -0.081 Cl
HETATM    4  C   LIG     1      17.882  36.601  20.403  1.00  0.00     0.050 A 
HETATM    5  C   LIG     1      16.965  35.542  20.379  1.00  0.00     0.054 A 
HETATM    6  C   LIG     1      15.954  35.458  21.333  1.00  0.00     0.037 A 
HETATM    7 CL   LIG     1      14.810  34.129  21.284  1.00  0.00    -0.084 Cl
HETATM    8  C   LIG     1      15.852  36.428  22.329  1.00  0.00     0.043 A 
ENDROOT
BRANCH   1   9
HETATM    9  C   LIG     1      16.623  38.484  23.490  1.00  0.00     0.294 C 
HETATM   10  O   LIG     1      16.525  39.713  23.217  1.00  0.00    -0.259 OA
BRANCH   9  11
HETATM   11  O   LIG     1      16.556  38.060  24.821  1.00  0.00    -0.322 OA
HETATM   12  C   LIG     1      17.668  37.492  25.504  1.00  0.00     0.213 C 
ENDBRANCH   9  11
ENDBRANCH   1   9
BRANCH   4  13
HETATM   13  N   LIG     1      18.901  36.654  19.395  1.00  0.00    -0.398 N 
HETATM   14  H   LIG     1      18.834  36.117  18.504  1.00  0.00     0.156 HD
HETATM   15  H   LIG     1      19.745  37.256  19.526  1.00  0.00     0.156 HD
ENDBRANCH   4  13
TORSDOF 3
ENDMDL
MODEL 3
REMARK VINA RESULT:      -6.2      9.097     10.355
REMARK  3 active torsions:
REMARK  status: ('A' for Active; 'I' for Inactive)
REMARK    1  A    between atoms: O_2  and  C_3 
REMARK    2  A    between atoms: C_3  and  C_4 
REMARK    3  A    between atoms: C_7  and  N_8 
ROOT
HETATM    1  C   LIG     1      15.692  31.900  15.003  1.00  0.00     0.065 A 
HETATM    2  C   LIG     1      14.815  32.340  16.027  1.00  0.00     0.076 A 
HETATM    3 CL   LIG     1      15.162  33.808  16.951  1.00  0.00    -0.081 Cl
HETATM    4  C   LIG     1      13.679  31.566  16.357  1.00  0.00     0.050 A 
HETATM    5  C   LIG     1      13.435  30.365  15.680  1.00  0.00     0.054 A 
HETATM    6  C   LIG     1      14.306  29.923  14.686  1.00  0.00     0.037 A 
HETATM    7 CL   LIG     1      13.990  28.413  13.852  1.00  0.00    -0.084 Cl
HETATM    8  C   LIG     1      15.427  30.682  14.351  1.00  0.00     0.043 A 
ENDROOT
BRANCH   1   9
HETATM    9  C   LIG     1      16.886  32.678  14.585  1.00  0.00     0.294 C 
HETATM   10  O   LIG     1      17.947  32.607  15.265  1.00  0.00    -0.259 OA
BRANCH   9  11
HETATM   11  O   LIG     1      16.855  33.456  13.423  1.00  0.00    -0.322 OA
HETATM   12  C   LIG     1      18.029  34.011  12.839  1.00  0.00     0.213 C 
ENDBRANCH   9  11
ENDBRANCH   1   9
BRANCH   4  13
HETATM   13  N   LIG     1      12.763  31.978  17.381  1.00  0.00    -0.398 N 
HETATM   14  H   LIG     1      12.697  31.492  18.301  1.00  0.00     0.156 HD
HETATM   15  H   LIG     1      12.136  32.801  17.232  1.00  0.00     0.156 HD
ENDBRANCH   4  13
TORSDOF 3
ENDMDL
MODEL 4
REMARK VINA RESULT:      -6.2      3.119      4.954
REMARK  3 active torsions:
REMARK  status: ('A' for Active; 'I' for Inactive)
REMARK    1  A    between atoms: O_2  and  C_3 
REMARK    2  A    between atoms: C_3  and  C_4 
REMARK    3  A    between atoms: C_7  and  N_8 
ROOT
HETATM    1  C   LIG     1      17.699  37.536  23.429  1.00  0.00     0.065 A 
HETATM    2  C   LIG     1      17.240  36.328  22.843  1.00  0.00     0.076 A 
HETATM    3 CL   LIG     1      16.715  34.973  23.851  1.00  0.00    -0.081 Cl
HETATM    4  C   LIG     1      17.257  36.179  21.437  1.00  0.00     0.050 A 
HETATM    5  C   LIG     1      17.740  37.221  20.634  1.00  0.00     0.054 A 
HETATM    6  C   LIG     1      18.207  38.400  21.210  1.00  0.00     0.037 A 
HETATM    7 CL   LIG     1      18.814  39.692  20.190  1.00  0.00    -0.084 Cl
HETATM    8  C   LIG     1      18.189  38.557  22.595  1.00  0.00     0.043 A 
ENDROOT
BRANCH   1   9
HETATM    9  C   LIG     1      17.680  37.770  24.895  1.00  0.00     0.294 C 
HETATM   10  O   LIG     1      16.770  38.483  25.402  1.00  0.00    -0.259 OA
BRANCH   9  11
HETATM   11  O   LIG     1      18.637  37.173  25.722  1.00  0.00    -0.322 OA
HETATM   12  C   LIG     1      18.294  36.264  26.763  1.00  0.00     0.213 C 
ENDBRANCH   9  11
ENDBRANCH   1   9
BRANCH   4  13
HETATM   13  N   LIG     1      16.797  34.977  20.805  1.00  0.00    -0.398 N 
HETATM   14  H   LIG     1      16.790  34.858  19.769  1.00  0.00     0.156 HD
HETATM   15  H   LIG     1      16.462  34.171  21.379  1.00  0.00     0.156 HD
ENDBRANCH   4  13
TORSDOF 3
ENDMDL
MODEL 5
REMARK VINA RESULT:      -6.0      3.205      3.965
REMARK  3 active torsions:
REMARK  status: ('A' for Active; 'I' for Inactive)
REMARK    1  A    between atoms: O_2  and  C_3 
REMARK    2  A    between atoms: C_3  and  C_4 
REMARK    3  A    between atoms: C_7  and  N_8 
ROOT
HETATM    1  C   LIG     1      18.163  37.505  20.568  1.00  0.00     0.065 A 
HETATM    2  C   LIG     1      17.713  38.132  21.759  1.00  0.00     0.076 A 
HETATM    3 CL   LIG     1      18.434  39.647  22.316  1.00  0.00    -0.081 Cl
HETATM    4  C   LIG     1      16.716  37.508  22.546  1.00  0.00     0.050 A 
HETATM    5  C   LIG     1      16.191  36.271  22.150  1.00  0.00     0.054 A 
HETATM    6  C   LIG     1      16.646  35.647  20.990  1.00  0.00     0.037 A 
HETATM    7 CL   LIG     1      15.983  34.095  20.512  1.00  0.00    -0.084 Cl
HETATM    8  C   LIG     1      17.625  36.257  20.207  1.00  0.00     0.043 A 
ENDROOT
BRANCH   1   9
HETATM    9  C   LIG     1      19.184  38.118  19.681  1.00  0.00     0.294 C 
HETATM   10  O   LIG     1      20.305  37.556  19.539  1.00  0.00    -0.259 OA
BRANCH   9  11
HETATM   11  O   LIG     1      18.897  39.289  18.972  1.00  0.00    -0.322 OA
HETATM   12  C   LIG     1      18.800  39.322  17.552  1.00  0.00     0.213 C 
ENDBRANCH   9  11
ENDBRANCH   1   9
BRANCH   4  13
HETATM   13  N   LIG     1      16.228  38.110  23.752  1.00  0.00    -0.398 N 
HETATM   14  H   LIG     1      15.240  38.008  24.068  1.00  0.00     0.156 HD
HETATM   15  H   LIG     1      16.868  38.666  24.363  1.00  0.00     0.156 HD
ENDBRANCH   4  13
TORSDOF 3
ENDMDL
MODEL 6
REMARK VINA RESULT:      -5.9      3.336      4.396
REMARK  3 active torsions:
REMARK  status: ('A' for Active; 'I' for Inactive)
REMARK    1  A    between atoms: O_2  and  C_3 
REMARK    2  A    between atoms: C_3  and  C_4 
REMARK    3  A    between atoms: C_7  and  N_8 
ROOT
HETATM    1  C   LIG     1      18.434  38.244  20.924  1.00  0.00     0.065 A 
HETATM    2  C   LIG     1      17.895  36.983  20.559  1.00  0.00     0.076 A 
HETATM    3 CL   LIG     1      18.062  36.369  18.909  1.00  0.00    -0.081 Cl
HETATM    4  C   LIG     1      17.162  36.233  21.506  1.00  0.00     0.050 A 
HETATM    5  C   LIG     1      16.962  36.745  22.795  1.00  0.00     0.054 A 
HETATM    6  C   LIG     1      17.476  37.991  23.149  1.00  0.00     0.037 A 
HETATM    7 CL   LIG     1      17.211  38.621  24.765  1.00  0.00    -0.084 Cl
HETATM    8  C   LIG     1      18.203  38.736  22.222  1.00  0.00     0.043 A 
ENDROOT
BRANCH   1   9
HETATM    9  C   LIG     1      19.238  39.070  19.989  1.00  0.00     0.294 C 
HETATM   10  O   LIG     1      20.495  39.093  20.099  1.00  0.00    -0.259 OA
BRANCH   9  11
HETATM   11  O   LIG     1      18.616  39.789  18.963  1.00  0.00    -0.322 OA
HETATM   12  C   LIG     1      18.825  39.498  17.585  1.00  0.00     0.213 C 
ENDBRANCH   9  11
ENDBRANCH   1   9
BRANCH   4  13
HETATM   13  N   LIG     1      16.606  34.951  21.180  1.00  0.00    -0.398 N 
HETATM   14  H   LIG     1      17.014  34.059  21.533  1.00  0.00     0.156 HD
HETATM   15  H   LIG     1      15.754  34.881  20.579  1.00  0.00     0.156 HD
ENDBRANCH   4  13
TORSDOF 3
ENDMDL
MODEL 7
REMARK VINA RESULT:      -5.9      8.595      9.896
REMARK  3 active torsions:
REMARK  status: ('A' for Active; 'I' for Inactive)
REMARK    1  A    between atoms: O_2  and  C_3 
REMARK    2  A    between atoms: C_3  and  C_4 
REMARK    3  A    between atoms: C_7  and  N_8 
ROOT
HETATM    1  C   LIG     1      16.036  32.540  15.295  1.00  0.00     0.065 A 
HETATM    2  C   LIG     1      15.055  32.760  16.296  1.00  0.00     0.076 A 
HETATM    3 CL   LIG     1      15.141  34.175  17.354  1.00  0.00    -0.081 Cl
HETATM    4  C   LIG     1      14.029  31.809  16.494  1.00  0.00     0.050 A 
HETATM    5  C   LIG     1      13.995  30.649  15.708  1.00  0.00     0.054 A 
HETATM    6  C   LIG     1      14.968  30.423  14.737  1.00  0.00     0.037 A 
HETATM    7 CL   LIG     1      14.915  28.963  13.767  1.00  0.00    -0.084 Cl
HETATM    8  C   LIG     1      15.982  31.359  14.533  1.00  0.00     0.043 A 
ENDROOT
BRANCH   1   9
HETATM    9  C   LIG     1      17.123  33.512  15.014  1.00  0.00     0.294 C 
HETATM   10  O   LIG     1      16.997  34.712  15.382  1.00  0.00    -0.259 OA
BRANCH   9  11
HETATM   11  O   LIG     1      18.300  33.097  14.383  1.00  0.00    -0.322 OA
HETATM   12  C   LIG     1      18.787  33.703  13.190  1.00  0.00     0.213 C 
ENDBRANCH   9  11
ENDBRANCH   1   9
BRANCH   4  13
HETATM   13  N   LIG     1      13.015  31.996  17.491  1.00  0.00    -0.398 N 
HETATM   14  H   LIG     1      12.592  31.200  18.014  1.00  0.00     0.156 HD
HETATM   15  H   LIG     1      12.678  32.956  17.729  1.00  0.00     0.156 HD
ENDBRANCH   4  13
TORSDOF 3
ENDMDL
MODEL 8
REMARK VINA RESULT:      -5.6      2.578      3.350
REMARK  3 active torsions:
REMARK  status: ('A' for Active; 'I' for Inactive)
REMARK    1  A    between atoms: O_2  and  C_3 
REMARK    2  A    between atoms: C_3  and  C_4 
REMARK    3  A    between atoms: C_7  and  N_8 
ROOT
HETATM    1  C   LIG     1      17.206  36.664  21.503  1.00  0.00     0.065 A 
HETATM    2  C   LIG     1      18.038  37.494  20.708  1.00  0.00     0.076 A 
HETATM    3 CL   LIG     1      18.443  37.047  19.045  1.00  0.00    -0.081 Cl
HETATM    4  C   LIG     1      18.601  38.664  21.268  1.00  0.00     0.050 A 
HETATM    5  C   LIG     1      18.344  38.987  22.607  1.00  0.00     0.054 A 
HETATM    6  C   LIG     1      17.542  38.162  23.393  1.00  0.00     0.037 A 
HETATM    7 CL   LIG     1      17.236  38.578  25.069  1.00  0.00    -0.084 Cl
HETATM    8  C   LIG     1      16.979  37.010  22.847  1.00  0.00     0.043 A 
ENDROOT
BRANCH   1   9
HETATM    9  C   LIG     1      16.558  35.439  20.970  1.00  0.00     0.294 C 
HETATM   10  O   LIG     1      16.884  34.310  21.431  1.00  0.00    -0.259 OA
BRANCH   9  11
HETATM   11  O   LIG     1      15.562  35.530  19.993  1.00  0.00    -0.322 OA
HETATM   12  C   LIG     1      15.535  34.691  18.843  1.00  0.00     0.213 C 
ENDBRANCH   9  11
ENDBRANCH   1   9
BRANCH   4  13
HETATM   13  N   LIG     1      19.442  39.534  20.497  1.00  0.00    -0.398 N 
HETATM   14  H   LIG     1      19.987  40.310  20.929  1.00  0.00     0.156 HD
HETATM   15  H   LIG     1      19.540  39.399  19.466  1.00  0.00     0.156 HD
ENDBRANCH   4  13
TORSDOF 3
ENDMDL
MODEL 9
REMARK VINA RESULT:      -5.6      2.785      3.919
REMARK  3 active torsions:
REMARK  status: ('A' for Active; 'I' for Inactive)
REMARK    1  A    between atoms: O_2  and  C_3 
REMARK    2  A    between atoms: C_3  and  C_4 
REMARK    3  A    between atoms: C_7  and  N_8 
ROOT
HETATM    1  C   LIG     1      17.168  36.663  20.825  1.00  0.00     0.065 A 
HETATM    2  C   LIG     1      16.724  37.505  21.877  1.00  0.00     0.076 A 
HETATM    3 CL   LIG     1      15.207  37.174  22.725  1.00  0.00    -0.081 Cl
HETATM    4  C   LIG     1      17.469  38.657  22.216  1.00  0.00     0.050 A 
HETATM    5  C   LIG     1      18.634  38.966  21.501  1.00  0.00     0.054 A 
HETATM    6  C   LIG     1      19.061  38.150  20.456  1.00  0.00     0.037 A 
HETATM    7 CL   LIG     1      20.518  38.555  19.567  1.00  0.00    -0.084 Cl
HETATM    8  C   LIG     1      18.334  37.009  20.119  1.00  0.00     0.043 A 
ENDROOT
BRANCH   1   9
HETATM    9  C   LIG     1      16.450  35.422  20.438  1.00  0.00     0.294 C 
HETATM   10  O   LIG     1      16.253  35.171  19.217  1.00  0.00    -0.259 OA
BRANCH   9  11
HETATM   11  O   LIG     1      16.028  34.513  21.412  1.00  0.00    -0.322 OA
HETATM   12  C   LIG     1      14.826  33.760  21.292  1.00  0.00     0.213 C 
ENDBRANCH   9  11
ENDBRANCH   1   9
BRANCH   4  13
HETATM   13  N   LIG     1      17.059  39.531  23.277  1.00  0.00    -0.398 N 
HETATM   14  H   LIG     1      16.127  39.451  23.738  1.00  0.00     0.156 HD
HETATM   15  H   LIG     1      17.702  40.275  23.629  1.00  0.00     0.156 HD
ENDBRANCH   4  13
TORSDOF 3
ENDMDL
MODEL 10
REMARK VINA RESULT:      -5.6      8.623     10.289
REMARK  3 active torsions:
REMARK  status: ('A' for Active; 'I' for Inactive)
REMARK    1  A    between atoms: O_2  and  C_3 
REMARK    2  A    between atoms: C_3  and  C_4 
REMARK    3  A    between atoms: C_7  and  N_8 
ROOT
HETATM    1  C   LIG     1      14.976  31.903  16.188  1.00  0.00     0.065 A 
HETATM    2  C   LIG     1      15.849  32.458  15.217  1.00  0.00     0.076 A 
HETATM    3 CL   LIG     1      16.785  33.917  15.566  1.00  0.00    -0.081 Cl
HETATM    4  C   LIG     1      15.928  31.875  13.931  1.00  0.00     0.050 A 
HETATM    5  C   LIG     1      15.135  30.762  13.623  1.00  0.00     0.054 A 
HETATM    6  C   LIG     1      14.264  30.228  14.571  1.00  0.00     0.037 A 
HETATM    7 CL   LIG     1      13.273  28.838  14.165  1.00  0.00    -0.084 Cl
HETATM    8  C   LIG     1      14.183  30.795  15.842  1.00  0.00     0.043 A 
ENDROOT
BRANCH   1   9
HETATM    9  C   LIG     1      14.865  32.447  17.566  1.00  0.00     0.294 C 
HETATM   10  O   LIG     1      15.279  33.614  17.811  1.00  0.00    -0.259 OA
BRANCH   9  11
HETATM   11  O   LIG     1      14.269  31.693  18.581  1.00  0.00    -0.322 OA
HETATM   12  C   LIG     1      14.882  31.491  19.849  1.00  0.00     0.213 C 
ENDBRANCH   9  11
ENDBRANCH   1   9
BRANCH   4  13
HETATM   13  N   LIG     1      16.802  32.400  12.923  1.00  0.00    -0.398 N 
HETATM   14  H   LIG     1      17.274  33.325  13.018  1.00  0.00     0.156 HD
HETATM   15  H   LIG     1      17.001  31.851  12.056  1.00  0.00     0.156 HD
ENDBRANCH   4  13
TORSDOF 3
ENDMDL
MODEL 11
REMARK VINA RESULT:      -5.5      8.395     10.294
REMARK  3 active torsions:
REMARK  status: ('A' for Active; 'I' for Inactive)
REMARK    1  A    between atoms: O_2  and  C_3 
REMARK    2  A    between atoms: C_3  and  C_4 
REMARK    3  A    between atoms: C_7  and  N_8 
ROOT
HETATM    1  C   LIG     1      15.507  32.524  16.001  1.00  0.00     0.065 A 
HETATM    2  C   LIG     1      14.747  31.408  15.564  1.00  0.00     0.076 A 
HETATM    3 CL   LIG     1      13.583  30.626  16.641  1.00  0.00    -0.081 Cl
HETATM    4  C   LIG     1      14.964  30.874  14.273  1.00  0.00     0.050 A 
HETATM    5  C   LIG     1      15.937  31.443  13.440  1.00  0.00     0.054 A 
HETATM    6  C   LIG     1      16.695  32.527  13.875  1.00  0.00     0.037 A 
HETATM    7 CL   LIG     1      17.914  33.223  12.822  1.00  0.00    -0.084 Cl
HETATM    8  C   LIG     1      16.485  33.063  15.145  1.00  0.00     0.043 A 
ENDROOT
BRANCH   1   9
HETATM    9  C   LIG     1      15.309  33.153  17.331  1.00  0.00     0.294 C 
HETATM   10  O   LIG     1      14.820  34.314  17.406  1.00  0.00    -0.259 OA
BRANCH   9  11
HETATM   11  O   LIG     1      15.623  32.453  18.501  1.00  0.00    -0.322 OA
HETATM   12  C   LIG     1      15.315  32.949  19.799  1.00  0.00     0.213 C 
ENDBRANCH   9  11
ENDBRANCH   1   9
BRANCH   4  13
HETATM   13  N   LIG     1      14.214  29.751  13.791  1.00  0.00    -0.398 N 
HETATM   14  H   LIG     1      13.214  29.597  14.044  1.00  0.00     0.156 HD
HETATM   15  H   LIG     1      14.656  29.054  13.151  1.00  0.00     0.156 HD
ENDBRANCH   4  13
TORSDOF 3
ENDMDL
MODEL 12
REMARK VINA RESULT:      -5.3      9.368     10.705
REMARK  3 active torsions:
REMARK  status: ('A' for Active; 'I' for Inactive)
REMARK    1  A    between atoms: O_2  and  C_3 
REMARK    2  A    between atoms: C_3  and  C_4 
REMARK    3  A    between atoms: C_7  and  N_8 
ROOT
HETATM    1  C   LIG     1      15.037  30.868  14.784  1.00  0.00     0.065 A 
HETATM    2  C   LIG     1      14.519  31.438  15.975  1.00  0.00     0.076 A 
HETATM    3 CL   LIG     1      13.163  30.686  16.826  1.00  0.00    -0.081 Cl
HETATM    4  C   LIG     1      15.051  32.655  16.460  1.00  0.00     0.050 A 
HETATM    5  C   LIG     1      16.076  33.296  15.752  1.00  0.00     0.054 A 
HETATM    6  C   LIG     1      16.573  32.747  14.572  1.00  0.00     0.037 A 
HETATM    7 CL   LIG     1      17.853  33.566  13.695  1.00  0.00    -0.084 Cl
HETATM    8  C   LIG     1      16.057  31.545  14.090  1.00  0.00     0.043 A 
ENDROOT
BRANCH   1   9
HETATM    9  C   LIG     1      14.546  29.579  14.236  1.00  0.00     0.294 C 
HETATM   10  O   LIG     1      13.305  29.378  14.130  1.00  0.00    -0.259 OA
BRANCH   9  11
HETATM   11  O   LIG     1      15.449  28.604  13.799  1.00  0.00    -0.322 OA
HETATM   12  C   LIG     1      15.036  27.307  13.380  1.00  0.00     0.213 C 
ENDBRANCH   9  11
ENDBRANCH   1   9
BRANCH   4  13
HETATM   13  N   LIG     1      14.560  33.262  17.663  1.00  0.00    -0.398 N 
HETATM   14  H   LIG     1      14.963  33.048  18.601  1.00  0.00     0.156 HD
HETATM   15  H   LIG     1      13.780  33.955  17.627  1.00  0.00     0.156 HD
ENDBRANCH   4  13
TORSDOF 3
ENDMDL
MODEL 13
REMARK VINA RESULT:      -5.3      8.474      9.974
REMARK  3 active torsions:
REMARK  status: ('A' for Active; 'I' for Inactive)
REMARK    1  A    between atoms: O_2  and  C_3 
REMARK    2  A    between atoms: C_3  and  C_4 
REMARK    3  A    between atoms: C_7  and  N_8 
ROOT
HETATM    1  C   LIG     1      15.391  32.049  15.068  1.00  0.00     0.065 A 
HETATM    2  C   LIG     1      14.406  31.058  15.319  1.00  0.00     0.076 A 
HETATM    3 CL   LIG     1      13.963  29.884  14.074  1.00  0.00    -0.081 Cl
HETATM    4  C   LIG     1      13.724  31.045  16.558  1.00  0.00     0.050 A 
HETATM    5  C   LIG     1      14.018  32.017  17.523  1.00  0.00     0.054 A 
HETATM    6  C   LIG     1      14.972  33.001  17.270  1.00  0.00     0.037 A 
HETATM    7 CL   LIG     1      15.323  34.214  18.488  1.00  0.00    -0.084 Cl
HETATM    8  C   LIG     1      15.651  33.018  16.053  1.00  0.00     0.043 A 
ENDROOT
BRANCH   1   9
HETATM    9  C   LIG     1      16.165  32.102  13.802  1.00  0.00     0.294 C 
HETATM   10  O   LIG     1      16.369  31.041  13.150  1.00  0.00    -0.259 OA
BRANCH   9  11
HETATM   11  O   LIG     1      16.631  33.324  13.307  1.00  0.00    -0.322 OA
HETATM   12  C   LIG     1      18.015  33.657  13.263  1.00  0.00     0.213 C 
ENDBRANCH   9  11
ENDBRANCH   1   9
BRANCH   4  13
HETATM   13  N   LIG     1      12.727  30.058  16.854  1.00  0.00    -0.398 N 
HETATM   14  H   LIG     1      11.830  29.994  16.326  1.00  0.00     0.156 HD
HETATM   15  H   LIG     1      12.884  29.358  17.613  1.00  0.00     0.156 HD
ENDBRANCH   4  13
TORSDOF 3
ENDMDL
MODEL 14
REMARK VINA RESULT:      -4.8      1.881      3.405
REMARK  3 active torsions:
REMARK  status: ('A' for Active; 'I' for Inactive)
REMARK    1  A    between atoms: O_2  and  C_3 
REMARK    2  A    between atoms: C_3  and  C_4 
REMARK    3  A    between atoms: C_7  and  N_8 
ROOT
HETATM    1  C   LIG     1      16.852  36.233  22.281  1.00  0.00     0.065 A 
HETATM    2  C   LIG     1      17.232  36.386  23.640  1.00  0.00     0.076 A 
HETATM    3 CL   LIG     1      16.707  35.224  24.866  1.00  0.00    -0.081 Cl
HETATM    4  C   LIG     1      17.989  37.514  24.033  1.00  0.00     0.050 A 
HETATM    5  C   LIG     1      18.346  38.477  23.081  1.00  0.00     0.054 A 
HETATM    6  C   LIG     1      17.958  38.336  21.751  1.00  0.00     0.037 A 
HETATM    7 CL   LIG     1      18.409  39.556  20.572  1.00  0.00    -0.084 Cl
HETATM    8  C   LIG     1      17.216  37.225  21.354  1.00  0.00     0.043 A 
ENDROOT
BRANCH   1   9
HETATM    9  C   LIG     1      16.084  35.059  21.795  1.00  0.00     0.294 C 
HETATM   10  O   LIG     1      14.996  34.749  22.355  1.00  0.00    -0.259 OA
BRANCH   9  11
HETATM   11  O   LIG     1      16.535  34.321  20.696  1.00  0.00    -0.322 OA
HETATM   12  C   LIG     1      15.720  33.368  20.023  1.00  0.00     0.213 C 
ENDBRANCH   9  11
ENDBRANCH   1   9
BRANCH   4  13
HETATM   13  N   LIG     1      18.398  37.704  25.395  1.00  0.00    -0.398 N 
HETATM   14  H   LIG     1      18.992  37.013  25.901  1.00  0.00     0.156 HD
HETATM   15  H   LIG     1      18.116  38.563  25.917  1.00  0.00     0.156 HD
ENDBRANCH   4  13
TORSDOF 3
ENDMDL
MODEL 15
REMARK VINA RESULT:      -4.7      3.470      5.090
REMARK  3 active torsions:
REMARK  status: ('A' for Active; 'I' for Inactive)
REMARK    1  A    between atoms: O_2  and  C_3 
REMARK    2  A    between atoms: C_3  and  C_4 
REMARK    3  A    between atoms: C_7  and  N_8 
ROOT
HETATM    1  C   LIG     1      17.067  36.139  22.044  1.00  0.00     0.065 A 
HETATM    2  C   LIG     1      16.241  35.403  21.156  1.00  0.00     0.076 A 
HETATM    3 CL   LIG     1      14.975  34.332  21.771  1.00  0.00    -0.081 Cl
HETATM    4  C   LIG     1      16.469  35.477  19.763  1.00  0.00     0.050 A 
HETATM    5  C   LIG     1      17.517  36.267  19.271  1.00  0.00     0.054 A 
HETATM    6  C   LIG     1      18.339  36.975  20.144  1.00  0.00     0.037 A 
HETATM    7 CL   LIG     1      19.651  37.954  19.511  1.00  0.00    -0.084 Cl
HETATM    8  C   LIG     1      18.119  36.911  21.519  1.00  0.00     0.043 A 
ENDROOT
BRANCH   1   9
HETATM    9  C   LIG     1      16.865  36.130  23.515  1.00  0.00     0.294 C 
HETATM   10  O   LIG     1      16.459  37.174  24.096  1.00  0.00    -0.259 OA
BRANCH   9  11
HETATM   11  O   LIG     1      17.081  34.962  24.254  1.00  0.00    -0.322 OA
HETATM   12  C   LIG     1      17.531  34.980  25.605  1.00  0.00     0.213 C 
ENDBRANCH   9  11
ENDBRANCH   1   9
BRANCH   4  13
HETATM   13  N   LIG     1      15.653  34.755  18.830  1.00  0.00    -0.398 N 
HETATM   14  H   LIG     1      15.078  35.232  18.103  1.00  0.00     0.156 HD
HETATM   15  H   LIG     1      15.626  33.710  18.849  1.00  0.00     0.156 HD
ENDBRANCH   4  13
TORSDOF 3
ENDMDL
MODEL 16
REMARK VINA RESULT:      -4.6      8.891     10.086
REMARK  3 active torsions:
REMARK  status: ('A' for Active; 'I' for Inactive)
REMARK    1  A    between atoms: O_2  and  C_3 
REMARK    2  A    between atoms: C_3  and  C_4 
REMARK    3  A    between atoms: C_7  and  N_8 
ROOT
HETATM    1  C   LIG     1      14.711  30.955  15.366  1.00  0.00     0.065 A 
HETATM    2  C   LIG     1      15.556  32.002  14.915  1.00  0.00     0.076 A 
HETATM    3 CL   LIG     1      16.141  32.042  13.247  1.00  0.00    -0.081 Cl
HETATM    4  C   LIG     1      15.987  32.995  15.824  1.00  0.00     0.050 A 
HETATM    5  C   LIG     1      15.588  32.931  17.166  1.00  0.00     0.054 A 
HETATM    6  C   LIG     1      14.772  31.893  17.613  1.00  0.00     0.037 A 
HETATM    7 CL   LIG     1      14.287  31.824  19.297  1.00  0.00    -0.084 Cl
HETATM    8  C   LIG     1      14.339  30.912  16.722  1.00  0.00     0.043 A 
ENDROOT
BRANCH   1   9
HETATM    9  C   LIG     1      14.197  29.898  14.459  1.00  0.00     0.294 C 
HETATM   10  O   LIG     1      12.954  29.694  14.380  1.00  0.00    -0.259 OA
BRANCH   9  11
HETATM   11  O   LIG     1      15.076  29.156  13.663  1.00  0.00    -0.322 OA
HETATM   12  C   LIG     1      15.069  27.733  13.631  1.00  0.00     0.213 C 
ENDBRANCH   9  11
ENDBRANCH   1   9
BRANCH   4  13
HETATM   13  N   LIG     1      16.837  34.074  15.409  1.00  0.00    -0.398 N 
HETATM   14  H   LIG     1      17.851  33.941  15.207  1.00  0.00     0.156 HD
HETATM   15  H   LIG     1      16.448  35.036  15.283  1.00  0.00     0.156 HD
ENDBRANCH   4  13
TORSDOF 3
ENDMDL
MODEL 17
REMARK VINA RESULT:      -4.6      2.343      4.103
REMARK  3 active torsions:
REMARK  status: ('A' for Active; 'I' for Inactive)
REMARK    1  A    between atoms: O_2  and  C_3 
REMARK    2  A    between atoms: C_3  and  C_4 
REMARK    3  A    between atoms: C_7  and  N_8 
ROOT
HETATM    1  C   LIG     1      17.365  36.464  22.103  1.00  0.00     0.065 A 
HETATM    2  C   LIG     1      17.633  37.741  22.661  1.00  0.00     0.076 A 
HETATM    3 CL   LIG     1      17.163  38.121  24.324  1.00  0.00    -0.081 Cl
HETATM    4  C   LIG     1      18.228  38.745  21.863  1.00  0.00     0.050 A 
HETATM    5  C   LIG     1      18.536  38.475  20.523  1.00  0.00     0.054 A 
HETATM    6  C   LIG     1      18.257  37.227  19.969  1.00  0.00     0.037 A 
HETATM    7 CL   LIG     1      18.643  36.909  18.288  1.00  0.00    -0.084 Cl
HETATM    8  C   LIG     1      17.674  36.231  20.751  1.00  0.00     0.043 A 
ENDROOT
BRANCH   1   9
HETATM    9  C   LIG     1      16.770  35.357  22.893  1.00  0.00     0.294 C 
HETATM   10  O   LIG     1      15.641  34.895  22.568  1.00  0.00    -0.259 OA
BRANCH   9  11
HETATM   11  O   LIG     1      17.469  34.795  23.966  1.00  0.00    -0.322 OA
HETATM   12  C   LIG     1      17.024  34.905  25.314  1.00  0.00     0.213 C 
ENDBRANCH   9  11
ENDBRANCH   1   9
BRANCH   4  13
HETATM   13  N   LIG     1      18.521  40.046  22.390  1.00  0.00    -0.398 N 
HETATM   14  H   LIG     1      19.491  40.349  22.623  1.00  0.00     0.156 HD
HETATM   15  H   LIG     1      17.756  40.740  22.543  1.00  0.00     0.156 HD
ENDBRANCH   4  13
TORSDOF 3
ENDMDL
MODEL 18
REMARK VINA RESULT:      -4.5      8.321      9.466
REMARK  3 active torsions:
REMARK  status: ('A' for Active; 'I' for Inactive)
REMARK    1  A    between atoms: O_2  and  C_3 
REMARK    2  A    between atoms: C_3  and  C_4 
REMARK    3  A    between atoms: C_7  and  N_8 
ROOT
HETATM    1  C   LIG     1      15.739  32.443  14.876  1.00  0.00     0.065 A 
HETATM    2  C   LIG     1      15.934  33.486  15.819  1.00  0.00     0.076 A 
HETATM    3 CL   LIG     1      17.172  34.723  15.561  1.00  0.00    -0.081 Cl
HETATM    4  C   LIG     1      15.173  33.506  17.010  1.00  0.00     0.050 A 
HETATM    5  C   LIG     1      14.241  32.489  17.256  1.00  0.00     0.054 A 
HETATM    6  C   LIG     1      14.062  31.455  16.338  1.00  0.00     0.037 A 
HETATM    7 CL   LIG     1      12.895  30.186  16.665  1.00  0.00    -0.084 Cl
HETATM    8  C   LIG     1      14.806  31.431  15.160  1.00  0.00     0.043 A 
ENDROOT
BRANCH   1   9
HETATM    9  C   LIG     1      16.483  32.379  13.592  1.00  0.00     0.294 C 
HETATM   10  O   LIG     1      16.525  31.293  12.949  1.00  0.00    -0.259 OA
BRANCH   9  11
HETATM   11  O   LIG     1      17.101  33.520  13.072  1.00  0.00    -0.322 OA
HETATM   12  C   LIG     1      18.397  33.491  12.483  1.00  0.00     0.213 C 
ENDBRANCH   9  11
ENDBRANCH   1   9
BRANCH   4  13
HETATM   13  N   LIG     1      15.334  34.544  17.985  1.00  0.00    -0.398 N 
HETATM   14  H   LIG     1      15.415  34.345  19.006  1.00  0.00     0.156 HD
HETATM   15  H   LIG     1      15.387  35.545  17.690  1.00  0.00     0.156 HD
ENDBRANCH   4  13
TORSDOF 3
ENDMDL
MODEL 19
REMARK VINA RESULT:      -4.3      5.671      6.789
REMARK  3 active torsions:
REMARK  status: ('A' for Active; 'I' for Inactive)
REMARK    1  A    between atoms: O_2  and  C_3 
REMARK    2  A    between atoms: C_3  and  C_4 
REMARK    3  A    between atoms: C_7  and  N_8 
ROOT
HETATM    1  C   LIG     1      15.258  33.830  18.206  1.00  0.00     0.065 A 
HETATM    2  C   LIG     1      14.911  32.491  18.526  1.00  0.00     0.076 A 
HETATM    3 CL   LIG     1      14.257  31.404  17.295  1.00  0.00    -0.081 Cl
HETATM    4  C   LIG     1      15.032  32.035  19.859  1.00  0.00     0.050 A 
HETATM    5  C   LIG     1      15.481  32.912  20.856  1.00  0.00     0.054 A 
HETATM    6  C   LIG     1      15.804  34.231  20.545  1.00  0.00     0.037 A 
HETATM    7 CL   LIG     1      16.359  35.318  21.806  1.00  0.00    -0.084 Cl
HETATM    8  C   LIG     1      15.692  34.688  19.233  1.00  0.00     0.043 A 
ENDROOT
BRANCH   1   9
HETATM    9  C   LIG     1      15.183  34.365  16.823  1.00  0.00     0.294 C 
HETATM   10  O   LIG     1      14.109  34.884  16.412  1.00  0.00    -0.259 OA
BRANCH   9  11
HETATM   11  O   LIG     1      16.305  34.335  15.989  1.00  0.00    -0.322 OA
HETATM   12  C   LIG     1      16.676  33.182  15.241  1.00  0.00     0.213 C 
ENDBRANCH   9  11
ENDBRANCH   1   9
BRANCH   4  13
HETATM   13  N   LIG     1      14.699  30.689  20.224  1.00  0.00    -0.398 N 
HETATM   14  H   LIG     1      14.863  29.880  19.586  1.00  0.00     0.156 HD
HETATM   15  H   LIG     1      14.288  30.481  21.162  1.00  0.00     0.156 HD
ENDBRANCH   4  13
TORSDOF 3
ENDMDL
MODEL 20
REMARK VINA RESULT:      -3.8     16.503     17.418
REMARK  3 active torsions:
REMARK  status: ('A' for Active; 'I' for Inactive)
REMARK    1  A    between atoms: O_2  and  C_3 
REMARK    2  A    between atoms: C_3  and  C_4 
REMARK    3  A    between atoms: C_7  and  N_8 
ROOT
HETATM    1  C   LIG     1      26.833  29.928  35.094  1.00  0.00     0.065 A 
HETATM    2  C   LIG     1      28.225  30.194  35.023  1.00  0.00     0.076 A 
HETATM    3 CL   LIG     1      28.953  31.485  35.987  1.00  0.00    -0.081 Cl
HETATM    4  C   LIG     1      29.034  29.459  34.126  1.00  0.00     0.050 A 
HETATM    5  C   LIG     1      28.453  28.483  33.305  1.00  0.00     0.054 A 
HETATM    6  C   LIG     1      27.083  28.235  33.362  1.00  0.00     0.037 A 
HETATM    7 CL   LIG     1      26.370  27.014  32.323  1.00  0.00    -0.084 Cl
HETATM    8  C   LIG     1      26.279  28.952  34.247  1.00  0.00     0.043 A 
ENDROOT
BRANCH   1   9
HETATM    9  C   LIG     1      25.932  30.641  36.034  1.00  0.00     0.294 C 
HETATM   10  O   LIG     1      25.501  31.789  35.736  1.00  0.00    -0.259 OA
BRANCH   9  11
HETATM   11  O   LIG     1      25.525  30.033  37.226  1.00  0.00    -0.322 OA
HETATM   12  C   LIG     1      26.383  29.197  37.994  1.00  0.00     0.213 C 
ENDBRANCH   9  11
ENDBRANCH   1   9
BRANCH   4  13
HETATM   13  N   LIG     1      30.446  29.691  34.027  1.00  0.00    -0.398 N 
HETATM   14  H   LIG     1      30.928  29.825  33.112  1.00  0.00     0.156 HD
HETATM   15  H   LIG     1      31.035  29.745  34.888  1.00  0.00     0.156 HD
ENDBRANCH   4  13
TORSDOF 3
ENDMDL
