MODEL 1
REMARK VINA RESULT:      -6.9      0.000      0.000
REMARK  5 active torsions:
REMARK  status: ('A' for Active; 'I' for Inactive)
REMARK    1  A    between atoms: C_2  and  N_4 
REMARK    2  A    between atoms: N_4  and  C_5 
REMARK    3  A    between atoms: C_7  and  N_8 
REMARK    4  A    between atoms: N_8  and  C_9 
REMARK    5  A    between atoms: C_13  and  S_14 
ROOT
HETATM    1  C   LIG     1      15.877  34.744  20.955  1.00  0.00     0.741 A 
HETATM    2  N   LIG     1      15.838  35.133  22.254  1.00  0.00     0.130 NA
HETATM    3  C   LIG     1      16.666  36.114  22.703  1.00  0.00     0.741 A 
HETATM    4  N   LIG     1      17.531  36.708  21.843  1.00  0.00    -0.035 NA
HETATM    5  C   LIG     1      17.572  36.324  20.543  1.00  0.00     0.225 A 
HETATM    6  N   LIG     1      16.745  35.345  20.099  1.00  0.00    -0.035 NA
ENDROOT
BRANCH   1   7
HETATM    7  N   LIG     1      14.999  33.706  20.497  1.00  0.00    -0.218 N 
HETATM    8  H   LIG     1      13.987  33.776  20.753  1.00  0.00     0.178 HD
BRANCH   7   9
HETATM    9  C   LIG     1      15.465  32.579  19.681  1.00  0.00     0.091 C 
HETATM   10  C   LIG     1      14.822  31.275  20.168  1.00  0.00     0.032 C 
HETATM   11  C   LIG     1      15.130  32.819  18.206  1.00  0.00     0.032 C 
ENDBRANCH   7   9
ENDBRANCH   1   7
BRANCH   3  12
HETATM   12  N   LIG     1      16.630  36.530  24.076  1.00  0.00    -0.218 N 
HETATM   13  H   LIG     1      15.809  37.093  24.394  1.00  0.00     0.178 HD
BRANCH  12  14
HETATM   14  C   LIG     1      17.677  36.171  25.039  1.00  0.00     0.091 C 
HETATM   15  C   LIG     1      17.319  34.861  25.749  1.00  0.00     0.032 C 
HETATM   16  C   LIG     1      17.861  37.299  26.058  1.00  0.00     0.032 C 
ENDBRANCH  12  14
ENDBRANCH   3  12
BRANCH   5  17
HETATM   17  S   LIG     1      18.718  37.104  19.414  1.00  0.00    -0.093 SA
HETATM   18  C   LIG     1      18.842  38.622  20.409  1.00  0.00     0.099 C 
ENDBRANCH   5  17
TORSDOF 5
ENDMDL
MODEL 2
REMARK VINA RESULT:      -6.9      0.112      5.327
REMARK  5 active torsions:
REMARK  status: ('A' for Active; 'I' for Inactive)
REMARK    1  A    between atoms: C_2  and  N_4 
REMARK    2  A    between atoms: N_4  and  C_5 
REMARK    3  A    between atoms: C_7  and  N_8 
REMARK    4  A    between atoms: N_8  and  C_9 
REMARK    5  A    between atoms: C_13  and  S_14 
ROOT
HETATM    1  C   LIG     1      16.656  36.153  22.611  1.00  0.00     0.741 A 
HETATM    2  N   LIG     1      15.825  35.184  22.151  1.00  0.00     0.130 NA
HETATM    3  C   LIG     1      15.874  34.796  20.848  1.00  0.00     0.741 A 
HETATM    4  N   LIG     1      16.764  35.381  20.007  1.00  0.00    -0.035 NA
HETATM    5  C   LIG     1      17.598  36.349  20.462  1.00  0.00     0.225 A 
HETATM    6  N   LIG     1      17.546  36.733  21.762  1.00  0.00    -0.035 NA
ENDROOT
BRANCH   1   7
HETATM    7  N   LIG     1      16.590  36.553  23.986  1.00  0.00    -0.218 N 
HETATM    8  H   LIG     1      15.738  37.069  24.304  1.00  0.00     0.178 HD
BRANCH   7   9
HETATM    9  C   LIG     1      17.655  36.251  24.949  1.00  0.00     0.091 C 
HETATM   10  C   LIG     1      17.759  37.373  25.988  1.00  0.00     0.032 C 
HETATM   11  C   LIG     1      17.382  34.910  25.638  1.00  0.00     0.032 C 
ENDBRANCH   7   9
ENDBRANCH   1   7
BRANCH   3  12
HETATM   12  N   LIG     1      14.998  33.772  20.357  1.00  0.00    -0.218 N 
HETATM   13  H   LIG     1      13.976  33.872  20.549  1.00  0.00     0.178 HD
BRANCH  12  14
HETATM   14  C   LIG     1      15.480  32.625  19.579  1.00  0.00     0.091 C 
HETATM   15  C   LIG     1      15.115  32.795  18.101  1.00  0.00     0.032 C 
HETATM   16  C   LIG     1      14.880  31.329  20.131  1.00  0.00     0.032 C 
ENDBRANCH  12  14
ENDBRANCH   3  12
BRANCH   5  17
HETATM   17  S   LIG     1      18.765  37.122  19.349  1.00  0.00    -0.093 SA
HETATM   18  C   LIG     1      18.944  38.606  20.386  1.00  0.00     0.099 C 
ENDBRANCH   5  17
TORSDOF 5
ENDMDL
MODEL 3
REMARK VINA RESULT:      -6.7      1.689      4.188
REMARK  5 active torsions:
REMARK  status: ('A' for Active; 'I' for Inactive)
REMARK    1  A    between atoms: C_2  and  N_4 
REMARK    2  A    between atoms: N_4  and  C_5 
REMARK    3  A    between atoms: C_7  and  N_8 
REMARK    4  A    between atoms: N_8  and  C_9 
REMARK    5  A    between atoms: C_13  and  S_14 
ROOT
HETATM    1  C   LIG     1      15.959  34.940  20.699  1.00  0.00     0.741 A 
HETATM    2  N   LIG     1      16.822  35.462  19.792  1.00  0.00     0.130 NA
HETATM    3  C   LIG     1      17.703  36.431  20.158  1.00  0.00     0.741 A 
HETATM    4  N   LIG     1      17.718  36.874  21.441  1.00  0.00    -0.035 NA
HETATM    5  C   LIG     1      16.858  36.354  22.352  1.00  0.00     0.225 A 
HETATM    6  N   LIG     1      15.982  35.387  21.982  1.00  0.00    -0.035 NA
ENDROOT
BRANCH   1   7
HETATM    7  N   LIG     1      15.034  33.920  20.296  1.00  0.00    -0.218 N 
HETATM    8  H   LIG     1      14.024  34.059  20.528  1.00  0.00     0.178 HD
BRANCH   7   9
HETATM    9  C   LIG     1      15.452  32.718  19.566  1.00  0.00     0.091 C 
HETATM   10  C   LIG     1      14.785  31.477  20.169  1.00  0.00     0.032 C 
HETATM   11  C   LIG     1      15.093  32.847  18.083  1.00  0.00     0.032 C 
ENDBRANCH   7   9
ENDBRANCH   1   7
BRANCH   3  12
HETATM   12  N   LIG     1      18.618  36.987  19.204  1.00  0.00    -0.218 N 
HETATM   13  H   LIG     1      18.996  36.353  18.464  1.00  0.00     0.178 HD
BRANCH  12  14
HETATM   14  C   LIG     1      19.012  38.400  19.215  1.00  0.00     0.091 C 
HETATM   15  C   LIG     1      18.770  39.029  17.839  1.00  0.00     0.032 C 
HETATM   16  C   LIG     1      20.485  38.531  19.610  1.00  0.00     0.032 C 
ENDBRANCH  12  14
ENDBRANCH   3  12
BRANCH   5  17
HETATM   17  S   LIG     1      16.878  36.943  24.040  1.00  0.00    -0.093 SA
HETATM   18  C   LIG     1      17.294  35.310  24.726  1.00  0.00     0.099 C 
ENDBRANCH   5  17
TORSDOF 5
ENDMDL
MODEL 4
REMARK VINA RESULT:      -6.4      2.211      5.501
REMARK  5 active torsions:
REMARK  status: ('A' for Active; 'I' for Inactive)
REMARK    1  A    between atoms: C_2  and  N_4 
REMARK    2  A    between atoms: N_4  and  C_5 
REMARK    3  A    between atoms: C_7  and  N_8 
REMARK    4  A    between atoms: N_8  and  C_9 
REMARK    5  A    between atoms: C_13  and  S_14 
ROOT
HETATM    1  C   LIG     1      17.959  38.204  21.481  1.00  0.00     0.741 A 
HETATM    2  N   LIG     1      17.600  36.940  21.145  1.00  0.00     0.130 NA
HETATM    3  C   LIG     1      17.157  36.074  22.096  1.00  0.00     0.741 A 
HETATM    4  N   LIG     1      17.070  36.482  23.387  1.00  0.00    -0.035 NA
HETATM    5  C   LIG     1      17.426  37.746  23.728  1.00  0.00     0.225 A 
HETATM    6  N   LIG     1      17.867  38.606  22.777  1.00  0.00    -0.035 NA
ENDROOT
BRANCH   1   7
HETATM    7  N   LIG     1      18.426  39.104  20.467  1.00  0.00    -0.218 N 
HETATM    8  H   LIG     1      18.288  40.129  20.624  1.00  0.00     0.178 HD
BRANCH   7   9
HETATM    9  C   LIG     1      19.097  38.641  19.247  1.00  0.00     0.091 C 
HETATM   10  C   LIG     1      18.666  39.497  18.052  1.00  0.00     0.032 C 
HETATM   11  C   LIG     1      20.617  38.700  19.423  1.00  0.00     0.032 C 
ENDBRANCH   7   9
ENDBRANCH   1   7
BRANCH   3  12
HETATM   12  N   LIG     1      16.776  34.736  21.747  1.00  0.00    -0.218 N 
HETATM   13  H   LIG     1      17.508  33.992  21.796  1.00  0.00     0.178 HD
BRANCH  12  14
HETATM   14  C   LIG     1      15.408  34.379  21.357  1.00  0.00     0.091 C 
HETATM   15  C   LIG     1      15.428  33.443  20.144  1.00  0.00     0.032 C 
HETATM   16  C   LIG     1      14.604  35.644  21.043  1.00  0.00     0.032 C 
ENDBRANCH  12  14
ENDBRANCH   3  12
BRANCH   5  17
HETATM   17  S   LIG     1      17.316  38.279  25.431  1.00  0.00    -0.093 SA
HETATM   18  C   LIG     1      18.150  36.793  26.069  1.00  0.00     0.099 C 
ENDBRANCH   5  17
TORSDOF 5
ENDMDL
MODEL 5
REMARK VINA RESULT:      -6.2      6.839      9.225
REMARK  5 active torsions:
REMARK  status: ('A' for Active; 'I' for Inactive)
REMARK    1  A    between atoms: C_2  and  N_4 
REMARK    2  A    between atoms: N_4  and  C_5 
REMARK    3  A    between atoms: C_7  and  N_8 
REMARK    4  A    between atoms: N_8  and  C_9 
REMARK    5  A    between atoms: C_13  and  S_14 
ROOT
HETATM    1  C   LIG     1      15.816  31.427  14.050  1.00  0.00     0.741 A 
HETATM    2  N   LIG     1      16.795  32.178  13.484  1.00  0.00     0.130 NA
HETATM    3  C   LIG     1      17.253  33.296  14.108  1.00  0.00     0.741 A 
HETATM    4  N   LIG     1      16.727  33.658  15.306  1.00  0.00    -0.035 NA
HETATM    5  C   LIG     1      15.750  32.909  15.877  1.00  0.00     0.225 A 
HETATM    6  N   LIG     1      15.298  31.795  15.251  1.00  0.00    -0.035 NA
ENDROOT
BRANCH   1   7
HETATM    7  N   LIG     1      15.343  30.252  13.377  1.00  0.00    -0.218 N 
HETATM    8  H   LIG     1      15.357  30.250  12.332  1.00  0.00     0.178 HD
BRANCH   7   9
HETATM    9  C   LIG     1      14.865  29.066  14.098  1.00  0.00     0.091 C 
HETATM   10  C   LIG     1      13.335  29.073  14.166  1.00  0.00     0.032 C 
HETATM   11  C   LIG     1      15.363  27.791  13.410  1.00  0.00     0.032 C 
ENDBRANCH   7   9
ENDBRANCH   1   7
BRANCH   3  12
HETATM   12  N   LIG     1      18.287  34.094  13.515  1.00  0.00    -0.218 N 
HETATM   13  H   LIG     1      18.487  35.027  13.941  1.00  0.00     0.178 HD
BRANCH  12  14
HETATM   14  C   LIG     1      19.079  33.636  12.369  1.00  0.00     0.091 C 
HETATM   15  C   LIG     1      20.572  33.652  12.715  1.00  0.00     0.032 C 
HETATM   16  C   LIG     1      18.804  34.525  11.153  1.00  0.00     0.032 C 
ENDBRANCH  12  14
ENDBRANCH   3  12
BRANCH   5  17
HETATM   17  S   LIG     1      15.057  33.393  17.453  1.00  0.00    -0.093 SA
HETATM   18  C   LIG     1      14.142  31.833  17.657  1.00  0.00     0.099 C 
ENDBRANCH   5  17
TORSDOF 5
ENDMDL
MODEL 6
REMARK VINA RESULT:      -6.2      6.824      9.823
REMARK  5 active torsions:
REMARK  status: ('A' for Active; 'I' for Inactive)
REMARK    1  A    between atoms: C_2  and  N_4 
REMARK    2  A    between atoms: N_4  and  C_5 
REMARK    3  A    between atoms: C_7  and  N_8 
REMARK    4  A    between atoms: N_8  and  C_9 
REMARK    5  A    between atoms: C_13  and  S_14 
ROOT
HETATM    1  C   LIG     1      17.380  33.226  14.124  1.00  0.00     0.741 A 
HETATM    2  N   LIG     1      16.890  32.127  13.499  1.00  0.00     0.130 NA
HETATM    3  C   LIG     1      15.836  31.448  14.025  1.00  0.00     0.741 A 
HETATM    4  N   LIG     1      15.270  31.878  15.181  1.00  0.00    -0.035 NA
HETATM    5  C   LIG     1      15.756  32.978  15.809  1.00  0.00     0.225 A 
HETATM    6  N   LIG     1      16.807  33.652  15.281  1.00  0.00    -0.035 NA
ENDROOT
BRANCH   1   7
HETATM    7  N   LIG     1      18.494  33.930  13.557  1.00  0.00    -0.218 N 
HETATM    8  H   LIG     1      18.929  34.692  14.126  1.00  0.00     0.178 HD
BRANCH   7   9
HETATM    9  C   LIG     1      19.044  33.607  12.236  1.00  0.00     0.091 C 
HETATM   10  C   LIG     1      18.623  34.670  11.216  1.00  0.00     0.032 C 
HETATM   11  C   LIG     1      20.571  33.511  12.306  1.00  0.00     0.032 C 
ENDBRANCH   7   9
ENDBRANCH   1   7
BRANCH   3  12
HETATM   12  N   LIG     1      15.313  30.284  13.369  1.00  0.00    -0.218 N 
HETATM   13  H   LIG     1      15.285  30.285  12.324  1.00  0.00     0.178 HD
BRANCH  12  14
HETATM   14  C   LIG     1      14.853  29.101  14.103  1.00  0.00     0.091 C 
HETATM   15  C   LIG     1      15.341  27.824  13.413  1.00  0.00     0.032 C 
HETATM   16  C   LIG     1      13.324  29.106  14.199  1.00  0.00     0.032 C 
ENDBRANCH  12  14
ENDBRANCH   3  12
BRANCH   5  17
HETATM   17  S   LIG     1      15.012  33.539  17.335  1.00  0.00    -0.093 SA
HETATM   18  C   LIG     1      14.175  31.953  17.644  1.00  0.00     0.099 C 
ENDBRANCH   5  17
TORSDOF 5
ENDMDL
MODEL 7
REMARK VINA RESULT:      -6.0      5.207      8.696
REMARK  5 active torsions:
REMARK  status: ('A' for Active; 'I' for Inactive)
REMARK    1  A    between atoms: C_2  and  N_4 
REMARK    2  A    between atoms: N_4  and  C_5 
REMARK    3  A    between atoms: C_7  and  N_8 
REMARK    4  A    between atoms: N_8  and  C_9 
REMARK    5  A    between atoms: C_13  and  S_14 
ROOT
HETATM    1  C   LIG     1      15.479  32.839  16.614  1.00  0.00     0.741 A 
HETATM    2  N   LIG     1      16.411  33.618  16.009  1.00  0.00     0.130 NA
HETATM    3  C   LIG     1      16.909  33.276  14.791  1.00  0.00     0.741 A 
HETATM    4  N   LIG     1      16.466  32.149  14.177  1.00  0.00    -0.035 NA
HETATM    5  C   LIG     1      15.533  31.368  14.777  1.00  0.00     0.225 A 
HETATM    6  N   LIG     1      15.039  31.713  15.992  1.00  0.00    -0.035 NA
ENDROOT
BRANCH   1   7
HETATM    7  N   LIG     1      14.966  33.213  17.899  1.00  0.00    -0.218 N 
HETATM    8  H   LIG     1      14.157  33.876  17.927  1.00  0.00     0.178 HD
BRANCH   7   9
HETATM    9  C   LIG     1      15.518  32.691  19.154  1.00  0.00     0.091 C 
HETATM   10  C   LIG     1      15.531  33.789  20.222  1.00  0.00     0.032 C 
HETATM   11  C   LIG     1      14.697  31.490  19.635  1.00  0.00     0.032 C 
ENDBRANCH   7   9
ENDBRANCH   1   7
BRANCH   3  12
HETATM   12  N   LIG     1      17.894  34.095  14.146  1.00  0.00    -0.218 N 
HETATM   13  H   LIG     1      18.288  34.899  14.685  1.00  0.00     0.178 HD
BRANCH  12  14
HETATM   14  C   LIG     1      18.380  33.827  12.788  1.00  0.00     0.091 C 
HETATM   15  C   LIG     1      19.911  33.865  12.755  1.00  0.00     0.032 C 
HETATM   16  C   LIG     1      17.799  34.854  11.811  1.00  0.00     0.032 C 
ENDBRANCH  12  14
ENDBRANCH   3  12
BRANCH   5  17
HETATM   17  S   LIG     1      14.956  29.881  13.969  1.00  0.00    -0.093 SA
HETATM   18  C   LIG     1      13.344  29.912  14.813  1.00  0.00     0.099 C 
ENDBRANCH   5  17
TORSDOF 5
ENDMDL
MODEL 8
REMARK VINA RESULT:      -6.0      1.361      2.016
REMARK  5 active torsions:
REMARK  status: ('A' for Active; 'I' for Inactive)
REMARK    1  A    between atoms: C_2  and  N_4 
REMARK    2  A    between atoms: N_4  and  C_5 
REMARK    3  A    between atoms: C_7  and  N_8 
REMARK    4  A    between atoms: N_8  and  C_9 
REMARK    5  A    between atoms: C_13  and  S_14 
ROOT
HETATM    1  C   LIG     1      17.069  35.767  21.483  1.00  0.00     0.741 A 
HETATM    2  N   LIG     1      16.748  35.868  22.798  1.00  0.00     0.130 NA
HETATM    3  C   LIG     1      17.015  37.010  23.486  1.00  0.00     0.741 A 
HETATM    4  N   LIG     1      17.603  38.055  22.850  1.00  0.00    -0.035 NA
HETATM    5  C   LIG     1      17.924  37.959  21.535  1.00  0.00     0.225 A 
HETATM    6  N   LIG     1      17.656  36.818  20.853  1.00  0.00    -0.035 NA
ENDROOT
BRANCH   1   7
HETATM    7  N   LIG     1      16.783  34.554  20.773  1.00  0.00    -0.218 N 
HETATM    8  H   LIG     1      17.541  33.836  20.709  1.00  0.00     0.178 HD
BRANCH   7   9
HETATM    9  C   LIG     1      15.477  34.287  20.159  1.00  0.00     0.091 C 
HETATM   10  C   LIG     1      15.476  34.753  18.699  1.00  0.00     0.032 C 
HETATM   11  C   LIG     1      15.149  32.793  20.241  1.00  0.00     0.032 C 
ENDBRANCH   7   9
ENDBRANCH   1   7
BRANCH   3  12
HETATM   12  N   LIG     1      16.678  37.123  24.876  1.00  0.00    -0.218 N 
HETATM   13  H   LIG     1      15.836  37.688  25.129  1.00  0.00     0.178 HD
BRANCH  12  14
HETATM   14  C   LIG     1      17.447  36.458  25.933  1.00  0.00     0.091 C 
HETATM   15  C   LIG     1      18.874  37.013  25.982  1.00  0.00     0.032 C 
HETATM   16  C   LIG     1      17.470  34.945  25.691  1.00  0.00     0.032 C 
ENDBRANCH  12  14
ENDBRANCH   3  12
BRANCH   5  17
HETATM   17  S   LIG     1      18.704  39.335  20.701  1.00  0.00    -0.093 SA
HETATM   18  C   LIG     1      19.608  38.266  19.539  1.00  0.00     0.099 C 
ENDBRANCH   5  17
TORSDOF 5
ENDMDL
MODEL 9
REMARK VINA RESULT:      -6.0      1.844      5.520
REMARK  5 active torsions:
REMARK  status: ('A' for Active; 'I' for Inactive)
REMARK    1  A    between atoms: C_2  and  N_4 
REMARK    2  A    between atoms: N_4  and  C_5 
REMARK    3  A    between atoms: C_7  and  N_8 
REMARK    4  A    between atoms: N_8  and  C_9 
REMARK    5  A    between atoms: C_13  and  S_14 
ROOT
HETATM    1  C   LIG     1      16.881  35.887  22.817  1.00  0.00     0.741 A 
HETATM    2  N   LIG     1      17.604  36.733  22.040  1.00  0.00     0.130 NA
HETATM    3  C   LIG     1      17.655  36.557  20.693  1.00  0.00     0.741 A 
HETATM    4  N   LIG     1      16.974  35.529  20.124  1.00  0.00    -0.035 NA
HETATM    5  C   LIG     1      16.249  34.682  20.896  1.00  0.00     0.225 A 
HETATM    6  N   LIG     1      16.201  34.862  22.239  1.00  0.00    -0.035 NA
ENDROOT
BRANCH   1   7
HETATM    7  N   LIG     1      16.840  36.085  24.237  1.00  0.00    -0.218 N 
HETATM    8  H   LIG     1      16.052  35.648  24.767  1.00  0.00     0.178 HD
BRANCH   7   9
HETATM    9  C   LIG     1      17.860  36.855  24.958  1.00  0.00     0.091 C 
HETATM   10  C   LIG     1      17.313  38.238  25.327  1.00  0.00     0.032 C 
HETATM   11  C   LIG     1      18.299  36.102  26.217  1.00  0.00     0.032 C 
ENDBRANCH   7   9
ENDBRANCH   1   7
BRANCH   3  12
HETATM   12  N   LIG     1      18.417  37.447  19.866  1.00  0.00    -0.218 N 
HETATM   13  H   LIG     1      18.258  37.412  18.834  1.00  0.00     0.178 HD
BRANCH  12  14
HETATM   14  C   LIG     1      19.376  38.412  20.417  1.00  0.00     0.091 C 
HETATM   15  C   LIG     1      18.644  39.662  20.916  1.00  0.00     0.032 C 
HETATM   16  C   LIG     1      20.411  38.788  19.353  1.00  0.00     0.032 C 
ENDBRANCH  12  14
ENDBRANCH   3  12
BRANCH   5  17
HETATM   17  S   LIG     1      15.358  33.326  20.145  1.00  0.00    -0.093 SA
HETATM   18  C   LIG     1      15.337  34.102  18.499  1.00  0.00     0.099 C 
ENDBRANCH   5  17
TORSDOF 5
ENDMDL
MODEL 10
REMARK VINA RESULT:      -6.0      5.201      7.897
REMARK  5 active torsions:
REMARK  status: ('A' for Active; 'I' for Inactive)
REMARK    1  A    between atoms: C_2  and  N_4 
REMARK    2  A    between atoms: N_4  and  C_5 
REMARK    3  A    between atoms: C_7  and  N_8 
REMARK    4  A    between atoms: N_8  and  C_9 
REMARK    5  A    between atoms: C_13  and  S_14 
ROOT
HETATM    1  C   LIG     1      16.954  33.250  14.797  1.00  0.00     0.741 A 
HETATM    2  N   LIG     1      16.466  33.612  16.011  1.00  0.00     0.130 NA
HETATM    3  C   LIG     1      15.503  32.867  16.616  1.00  0.00     0.741 A 
HETATM    4  N   LIG     1      15.032  31.753  16.001  1.00  0.00    -0.035 NA
HETATM    5  C   LIG     1      15.518  31.385  14.789  1.00  0.00     0.225 A 
HETATM    6  N   LIG     1      16.478  32.131  14.189  1.00  0.00    -0.035 NA
ENDROOT
BRANCH   1   7
HETATM    7  N   LIG     1      17.968  34.048  14.172  1.00  0.00    -0.218 N 
HETATM    8  H   LIG     1      18.423  34.795  14.745  1.00  0.00     0.178 HD
BRANCH   7   9
HETATM    9  C   LIG     1      18.392  33.841  12.782  1.00  0.00     0.091 C 
HETATM   10  C   LIG     1      17.718  34.869  11.867  1.00  0.00     0.032 C 
HETATM   11  C   LIG     1      19.916  33.949  12.672  1.00  0.00     0.032 C 
ENDBRANCH   7   9
ENDBRANCH   1   7
BRANCH   3  12
HETATM   12  N   LIG     1      14.983  33.245  17.898  1.00  0.00    -0.218 N 
HETATM   13  H   LIG     1      14.174  33.906  17.921  1.00  0.00     0.178 HD
BRANCH  12  14
HETATM   14  C   LIG     1      15.522  32.718  19.157  1.00  0.00     0.091 C 
HETATM   15  C   LIG     1      14.704  31.507  19.619  1.00  0.00     0.032 C 
HETATM   16  C   LIG     1      15.512  33.810  20.230  1.00  0.00     0.032 C 
ENDBRANCH  12  14
ENDBRANCH   3  12
BRANCH   5  17
HETATM   17  S   LIG     1      14.890  29.920  13.979  1.00  0.00    -0.093 SA
HETATM   18  C   LIG     1      13.315  29.954  14.888  1.00  0.00     0.099 C 
ENDBRANCH   5  17
TORSDOF 5
ENDMDL
MODEL 11
REMARK VINA RESULT:      -5.1      6.154      9.382
REMARK  5 active torsions:
REMARK  status: ('A' for Active; 'I' for Inactive)
REMARK    1  A    between atoms: C_2  and  N_4 
REMARK    2  A    between atoms: N_4  and  C_5 
REMARK    3  A    between atoms: C_7  and  N_8 
REMARK    4  A    between atoms: N_8  and  C_9 
REMARK    5  A    between atoms: C_13  and  S_14 
ROOT
HETATM    1  C   LIG     1      14.588  31.508  16.002  1.00  0.00     0.741 A 
HETATM    2  N   LIG     1      15.384  32.245  15.187  1.00  0.00     0.130 NA
HETATM    3  C   LIG     1      15.702  31.794  13.944  1.00  0.00     0.741 A 
HETATM    4  N   LIG     1      15.215  30.600  13.518  1.00  0.00    -0.035 NA
HETATM    5  C   LIG     1      14.418  29.861  14.328  1.00  0.00     0.225 A 
HETATM    6  N   LIG     1      14.103  30.314  15.567  1.00  0.00    -0.035 NA
ENDROOT
BRANCH   1   7
HETATM    7  N   LIG     1      14.264  31.996  17.311  1.00  0.00    -0.218 N 
HETATM    8  H   LIG     1      13.276  31.893  17.638  1.00  0.00     0.178 HD
BRANCH   7   9
HETATM    9  C   LIG     1      15.261  32.610  18.195  1.00  0.00     0.091 C 
HETATM   10  C   LIG     1      15.152  34.137  18.132  1.00  0.00     0.032 C 
HETATM   11  C   LIG     1      15.065  32.121  19.634  1.00  0.00     0.032 C 
ENDBRANCH   7   9
ENDBRANCH   1   7
BRANCH   3  12
HETATM   12  N   LIG     1      16.543  32.568  13.077  1.00  0.00    -0.218 N 
HETATM   13  H   LIG     1      16.197  32.767  12.111  1.00  0.00     0.178 HD
BRANCH  12  14
HETATM   14  C   LIG     1      17.838  33.107  13.506  1.00  0.00     0.091 C 
HETATM   15  C   LIG     1      17.638  34.395  14.310  1.00  0.00     0.032 C 
HETATM   16  C   LIG     1      18.726  33.371  12.287  1.00  0.00     0.032 C 
ENDBRANCH  12  14
ENDBRANCH   3  12
BRANCH   5  17
HETATM   17  S   LIG     1      13.783  28.287  13.766  1.00  0.00    -0.093 SA
HETATM   18  C   LIG     1      15.439  27.558  13.576  1.00  0.00     0.099 C 
ENDBRANCH   5  17
TORSDOF 5
ENDMDL
MODEL 12
REMARK VINA RESULT:      -4.6      5.673      8.155
REMARK  5 active torsions:
REMARK  status: ('A' for Active; 'I' for Inactive)
REMARK    1  A    between atoms: C_2  and  N_4 
REMARK    2  A    between atoms: N_4  and  C_5 
REMARK    3  A    between atoms: C_7  and  N_8 
REMARK    4  A    between atoms: N_8  and  C_9 
REMARK    5  A    between atoms: C_13  and  S_14 
ROOT
HETATM    1  C   LIG     1      14.095  31.198  16.343  1.00  0.00     0.741 A 
HETATM    2  N   LIG     1      14.930  31.935  15.569  1.00  0.00     0.130 NA
HETATM    3  C   LIG     1      15.753  32.860  16.131  1.00  0.00     0.741 A 
HETATM    4  N   LIG     1      15.740  33.040  17.476  1.00  0.00    -0.035 NA
HETATM    5  C   LIG     1      14.908  32.304  18.255  1.00  0.00     0.225 A 
HETATM    6  N   LIG     1      14.089  31.383  17.690  1.00  0.00    -0.035 NA
ENDROOT
BRANCH   1   7
HETATM    7  N   LIG     1      13.231  30.228  15.734  1.00  0.00    -0.218 N 
HETATM    8  H   LIG     1      12.420  29.879  16.293  1.00  0.00     0.178 HD
BRANCH   7   9
HETATM    9  C   LIG     1      13.436  29.734  14.367  1.00  0.00     0.091 C 
HETATM   10  C   LIG     1      14.860  29.188  14.213  1.00  0.00     0.032 C 
HETATM   11  C   LIG     1      12.409  28.646  14.038  1.00  0.00     0.032 C 
ENDBRANCH   7   9
ENDBRANCH   1   7
BRANCH   3  12
HETATM   12  N   LIG     1      16.639  33.643  15.318  1.00  0.00    -0.218 N 
HETATM   13  H   LIG     1      16.710  34.666  15.520  1.00  0.00     0.178 HD
BRANCH  12  14
HETATM   14  C   LIG     1      17.456  33.058  14.250  1.00  0.00     0.091 C 
HETATM   15  C   LIG     1      18.391  34.118  13.656  1.00  0.00     0.032 C 
HETATM   16  C   LIG     1      16.554  32.471  13.161  1.00  0.00     0.032 C 
ENDBRANCH  12  14
ENDBRANCH   3  12
BRANCH   5  17
HETATM   17  S   LIG     1      14.888  32.548  20.026  1.00  0.00    -0.093 SA
HETATM   18  C   LIG     1      14.905  30.765  20.387  1.00  0.00     0.099 C 
ENDBRANCH   5  17
TORSDOF 5
ENDMDL
MODEL 13
REMARK VINA RESULT:      -3.9     14.288     15.514
REMARK  5 active torsions:
REMARK  status: ('A' for Active; 'I' for Inactive)
REMARK    1  A    between atoms: C_2  and  N_4 
REMARK    2  A    between atoms: N_4  and  C_5 
REMARK    3  A    between atoms: C_7  and  N_8 
REMARK    4  A    between atoms: N_8  and  C_9 
REMARK    5  A    between atoms: C_13  and  S_14 
ROOT
HETATM    1  C   LIG     1      26.931  25.171  20.197  1.00  0.00     0.741 A 
HETATM    2  N   LIG     1      25.821  24.414  20.005  1.00  0.00     0.130 NA
HETATM    3  C   LIG     1      25.521  23.402  20.862  1.00  0.00     0.741 A 
HETATM    4  N   LIG     1      26.338  23.152  21.917  1.00  0.00    -0.035 NA
HETATM    5  C   LIG     1      27.447  23.907  22.115  1.00  0.00     0.225 A 
HETATM    6  N   LIG     1      27.742  24.915  21.258  1.00  0.00    -0.035 NA
ENDROOT
BRANCH   1   7
HETATM    7  N   LIG     1      27.235  26.233  19.283  1.00  0.00    -0.218 N 
HETATM    8  H   LIG     1      26.495  26.952  19.108  1.00  0.00     0.178 HD
BRANCH   7   9
HETATM    9  C   LIG     1      28.533  26.350  18.610  1.00  0.00     0.091 C 
HETATM   10  C   LIG     1      28.610  25.365  17.438  1.00  0.00     0.032 C 
HETATM   11  C   LIG     1      28.745  27.784  18.114  1.00  0.00     0.032 C 
ENDBRANCH   7   9
ENDBRANCH   1   7
BRANCH   3  12
HETATM   12  N   LIG     1      24.350  22.598  20.664  1.00  0.00    -0.218 N 
HETATM   13  H   LIG     1      24.228  22.133  19.736  1.00  0.00     0.178 HD
BRANCH  12  14
HETATM   14  C   LIG     1      23.348  22.387  21.715  1.00  0.00     0.091 C 
HETATM   15  C   LIG     1      23.190  20.891  22.005  1.00  0.00     0.032 C 
HETATM   16  C   LIG     1      22.008  22.994  21.291  1.00  0.00     0.032 C 
ENDBRANCH  12  14
ENDBRANCH   3  12
BRANCH   5  17
HETATM   17  S   LIG     1      28.523  23.571  23.503  1.00  0.00    -0.093 SA
HETATM   18  C   LIG     1      28.121  25.137  24.338  1.00  0.00     0.099 C 
ENDBRANCH   5  17
TORSDOF 5
ENDMDL
