REMARK  5 active torsions:
REMARK  status: ('A' for Active; 'I' for Inactive)
REMARK    1  A    between atoms: C_2  and  N_4 
REMARK    2  A    between atoms: N_4  and  C_5 
REMARK    3  A    between atoms: C_7  and  N_8 
REMARK    4  A    between atoms: N_8  and  C_9 
REMARK    5  A    between atoms: C_13  and  S_14 
ROOT
HETATM    1  C   LIG     1       0.876   0.091  -0.391  1.00  0.00     0.741 A 
HETATM    2  N   LIG     1      -0.403  -0.333  -0.552  1.00  0.00     0.130 NA
HETATM    3  C   LIG     1      -1.421   0.565  -0.632  1.00  0.00     0.741 A 
HETATM    4  N   LIG     1      -1.152   1.893  -0.554  1.00  0.00    -0.035 NA
HETATM    5  C   LIG     1       0.125   2.322  -0.395  1.00  0.00     0.225 A 
HETATM    6  N   LIG     1       1.137   1.423  -0.316  1.00  0.00    -0.035 NA
ENDROOT
BRANCH   1   7
HETATM    7  N   LIG     1       1.938  -0.869  -0.306  1.00  0.00    -0.218 N 
HETATM    8  H   LIG     1       1.694  -1.878  -0.433  1.00  0.00     0.178 HD
BRANCH   7   9
HETATM    9  C   LIG     1       3.334  -0.485  -0.068  1.00  0.00     0.091 C 
HETATM   10  C   LIG     1       3.528  -0.087   1.399  1.00  0.00     0.032 C 
HETATM   11  C   LIG     1       4.271  -1.640  -0.435  1.00  0.00     0.032 C 
ENDBRANCH   7   9
ENDBRANCH   1   7
BRANCH   3  12
HETATM   12  N   LIG     1      -2.775   0.123  -0.802  1.00  0.00    -0.218 N 
HETATM   13  H   LIG     1      -3.516   0.852  -0.911  1.00  0.00     0.178 HD
BRANCH  12  14
HETATM   14  C   LIG     1      -3.143  -1.296  -0.857  1.00  0.00     0.091 C 
HETATM   15  C   LIG     1      -4.529  -1.461  -1.489  1.00  0.00     0.032 C 
HETATM   16  C   LIG     1      -3.123  -1.898   0.551  1.00  0.00     0.032 C 
ENDBRANCH  12  14
ENDBRANCH   3  12
BRANCH   5  17
HETATM   17  S   LIG     1       0.475   4.072  -0.287  1.00  0.00    -0.093 SA
HETATM   18  C   LIG     1       0.325   4.106   1.526  1.00  0.00     0.099 C 
ENDBRANCH   5  17
TORSDOF 5
