REMARK  3 active torsions:
REMARK  status: ('A' for Active; 'I' for Inactive)
REMARK    1  A    between atoms: C_2  and  C_5 
REMARK    2  A    between atoms: C_5  and  C_8 
REMARK    3  A    between atoms: C_5  and  O_7 
ROOT
HETATM    1  C   LIG     1       0.364   0.078  -0.752  1.00  0.00     0.060 C 
HETATM    2  C   LIG     1       1.075  -1.275  -1.009  1.00  0.00     0.046 C 
ENDROOT
BRANCH   1   3
HETATM    3  C   LIG     1      -0.979  -0.104   0.101  1.00  0.00    -0.021 C 
HETATM    4  C   LIG     1      -0.703  -0.437   1.585  1.00  0.00     0.017 C 
HETATM    5  C   LIG     1      -1.851  -1.247  -0.482  1.00  0.00     0.017 C 
HETATM    6  C   LIG     1      -1.853   1.180   0.068  1.00  0.00     0.017 C 
ENDBRANCH   1   3
BRANCH   1   7
HETATM    7  C   LIG     1       1.391   1.092  -0.112  1.00  0.00     0.033 C 
HETATM    8  C   LIG     1       2.429   0.514   0.865  1.00  0.00     0.008 C 
ENDBRANCH   1   7
BRANCH   1   9
HETATM    9  O   LIG     1       0.012   0.553  -2.036  1.00  0.00    -0.390 OA
HETATM   10  H   LIG     1      -0.156   1.531  -1.986  1.00  0.00     0.210 HD
ENDBRANCH   1   9
TORSDOF 3
