MODEL 1
REMARK VINA RESULT:      -5.7      0.000      0.000
REMARK  3 active torsions:
REMARK  status: ('A' for Active; 'I' for Inactive)
REMARK    1  A    between atoms: C_2  and  C_5 
REMARK    2  A    between atoms: C_5  and  C_8 
REMARK    3  A    between atoms: C_5  and  O_7 
ROOT
HETATM    1  C   LIG     1      16.381  37.619  22.974  1.00  0.00     0.060 C 
HETATM    2  C   LIG     1      17.165  38.806  22.358  1.00  0.00     0.046 C 
ENDROOT
BRANCH   1   3
HETATM    3  C   LIG     1      16.482  36.301  22.069  1.00  0.00    -0.021 C 
HETATM    4  C   LIG     1      15.130  35.913  21.428  1.00  0.00     0.017 C 
HETATM    5  C   LIG     1      16.967  35.091  22.910  1.00  0.00     0.017 C 
HETATM    6  C   LIG     1      17.509  36.479  20.917  1.00  0.00     0.017 C 
ENDBRANCH   1   3
BRANCH   1   7
HETATM    7  C   LIG     1      16.851  37.403  24.466  1.00  0.00     0.033 C 
HETATM    8  C   LIG     1      18.223  37.977  24.857  1.00  0.00     0.008 C 
ENDBRANCH   1   7
BRANCH   1   9
HETATM    9  O   LIG     1      15.033  38.043  22.989  1.00  0.00    -0.390 OA
HETATM   10  H   LIG     1      14.923  38.753  23.676  1.00  0.00     0.210 HD
ENDBRANCH   1   9
TORSDOF 3
ENDMDL
MODEL 2
REMARK VINA RESULT:      -5.4      1.458      2.249
REMARK  3 active torsions:
REMARK  status: ('A' for Active; 'I' for Inactive)
REMARK    1  A    between atoms: C_2  and  C_5 
REMARK    2  A    between atoms: C_5  and  C_8 
REMARK    3  A    between atoms: C_5  and  O_7 
ROOT
HETATM    1  C   LIG     1      17.301  37.276  24.282  1.00  0.00     0.060 C 
HETATM    2  C   LIG     1      18.606  38.112  24.282  1.00  0.00     0.046 C 
ENDROOT
BRANCH   1   3
HETATM    3  C   LIG     1      16.808  36.937  22.797  1.00  0.00    -0.021 C 
HETATM    4  C   LIG     1      17.646  37.650  21.712  1.00  0.00     0.017 C 
HETATM    5  C   LIG     1      15.328  37.357  22.598  1.00  0.00     0.017 C 
HETATM    6  C   LIG     1      16.877  35.411  22.509  1.00  0.00     0.017 C 
ENDBRANCH   1   3
BRANCH   1   7
HETATM    7  C   LIG     1      17.498  36.002  25.193  1.00  0.00     0.033 C 
HETATM    8  C   LIG     1      18.266  36.197  26.512  1.00  0.00     0.008 C 
ENDBRANCH   1   7
BRANCH   1   9
HETATM    9  O   LIG     1      16.335  38.111  24.889  1.00  0.00    -0.390 OA
HETATM   10  H   LIG     1      15.830  38.592  24.181  1.00  0.00     0.210 HD
ENDBRANCH   1   9
TORSDOF 3
ENDMDL
MODEL 3
REMARK VINA RESULT:      -4.8      1.533      3.550
REMARK  3 active torsions:
REMARK  status: ('A' for Active; 'I' for Inactive)
REMARK    1  A    between atoms: C_2  and  C_5 
REMARK    2  A    between atoms: C_5  and  C_8 
REMARK    3  A    between atoms: C_5  and  O_7 
ROOT
HETATM    1  C   LIG     1      16.785  36.086  21.801  1.00  0.00     0.060 C 
HETATM    2  C   LIG     1      17.732  36.276  20.589  1.00  0.00     0.046 C 
ENDROOT
BRANCH   1   3
HETATM    3  C   LIG     1      16.798  37.356  22.776  1.00  0.00    -0.021 C 
HETATM    4  C   LIG     1      17.210  36.995  24.221  1.00  0.00     0.017 C 
HETATM    5  C   LIG     1      15.395  38.016  22.839  1.00  0.00     0.017 C 
HETATM    6  C   LIG     1      17.779  38.450  22.272  1.00  0.00     0.017 C 
ENDBRANCH   1   3
BRANCH   1   7
HETATM    7  C   LIG     1      15.346  35.698  21.281  1.00  0.00     0.033 C 
HETATM    8  C   LIG     1      14.993  34.201  21.246  1.00  0.00     0.008 C 
ENDBRANCH   1   7
BRANCH   1   9
HETATM    9  O   LIG     1      17.315  34.981  22.506  1.00  0.00    -0.390 OA
HETATM   10  H   LIG     1      18.293  34.929  22.341  1.00  0.00     0.210 HD
ENDBRANCH   1   9
TORSDOF 3
ENDMDL
MODEL 4
REMARK VINA RESULT:      -4.8      1.481      2.352
REMARK  3 active torsions:
REMARK  status: ('A' for Active; 'I' for Inactive)
REMARK    1  A    between atoms: C_2  and  C_5 
REMARK    2  A    between atoms: C_5  and  C_8 
REMARK    3  A    between atoms: C_5  and  O_7 
ROOT
HETATM    1  C   LIG     1      16.795  37.619  22.546  1.00  0.00     0.060 C 
HETATM    2  C   LIG     1      15.411  38.169  22.972  1.00  0.00     0.046 C 
ENDROOT
BRANCH   1   3
HETATM    3  C   LIG     1      16.683  36.167  21.879  1.00  0.00    -0.021 C 
HETATM    4  C   LIG     1      17.066  35.031  22.855  1.00  0.00     0.017 C 
HETATM    5  C   LIG     1      17.613  36.056  20.642  1.00  0.00     0.017 C 
HETATM    6  C   LIG     1      15.242  35.882  21.376  1.00  0.00     0.017 C 
ENDBRANCH   1   3
BRANCH   1   7
HETATM    7  C   LIG     1      17.520  38.684  21.633  1.00  0.00     0.033 C 
HETATM    8  C   LIG     1      18.901  39.178  22.095  1.00  0.00     0.008 C 
ENDBRANCH   1   7
BRANCH   1   9
HETATM    9  O   LIG     1      17.524  37.498  23.751  1.00  0.00    -0.390 OA
HETATM   10  H   LIG     1      17.558  36.541  24.015  1.00  0.00     0.210 HD
ENDBRANCH   1   9
TORSDOF 3
ENDMDL
MODEL 5
REMARK VINA RESULT:      -4.6      1.159      3.491
REMARK  3 active torsions:
REMARK  status: ('A' for Active; 'I' for Inactive)
REMARK    1  A    between atoms: C_2  and  C_5 
REMARK    2  A    between atoms: C_5  and  C_8 
REMARK    3  A    between atoms: C_5  and  O_7 
ROOT
HETATM    1  C   LIG     1      16.643  36.560  22.198  1.00  0.00     0.060 C 
HETATM    2  C   LIG     1      17.011  35.564  23.328  1.00  0.00     0.046 C 
ENDROOT
BRANCH   1   3
HETATM    3  C   LIG     1      17.224  38.025  22.479  1.00  0.00    -0.021 C 
HETATM    4  C   LIG     1      18.254  38.472  21.416  1.00  0.00     0.017 C 
HETATM    5  C   LIG     1      17.922  38.085  23.863  1.00  0.00     0.017 C 
HETATM    6  C   LIG     1      16.094  39.090  22.507  1.00  0.00     0.017 C 
ENDBRANCH   1   3
BRANCH   1   7
HETATM    7  C   LIG     1      17.085  35.956  20.808  1.00  0.00     0.033 C 
HETATM    8  C   LIG     1      16.028  35.161  20.022  1.00  0.00     0.008 C 
ENDBRANCH   1   7
BRANCH   1   9
HETATM    9  O   LIG     1      15.231  36.631  22.223  1.00  0.00    -0.390 OA
HETATM   10  H   LIG     1      14.878  35.897  22.792  1.00  0.00     0.210 HD
ENDBRANCH   1   9
TORSDOF 3
ENDMDL
MODEL 6
REMARK VINA RESULT:      -4.5      1.136      3.222
REMARK  3 active torsions:
REMARK  status: ('A' for Active; 'I' for Inactive)
REMARK    1  A    between atoms: C_2  and  C_5 
REMARK    2  A    between atoms: C_5  and  C_8 
REMARK    3  A    between atoms: C_5  and  O_7 
ROOT
HETATM    1  C   LIG     1      16.720  37.772  23.342  1.00  0.00     0.060 C 
HETATM    2  C   LIG     1      16.602  36.482  22.491  1.00  0.00     0.046 C 
ENDROOT
BRANCH   1   3
HETATM    3  C   LIG     1      17.584  37.538  24.669  1.00  0.00    -0.021 C 
HETATM    4  C   LIG     1      17.545  36.071  25.155  1.00  0.00     0.017 C 
HETATM    5  C   LIG     1      17.067  38.430  25.828  1.00  0.00     0.017 C 
HETATM    6  C   LIG     1      19.076  37.915  24.452  1.00  0.00     0.017 C 
ENDBRANCH   1   3
BRANCH   1   7
HETATM    7  C   LIG     1      17.256  38.947  22.433  1.00  0.00     0.033 C 
HETATM    8  C   LIG     1      18.004  38.552  21.148  1.00  0.00     0.008 C 
ENDBRANCH   1   7
BRANCH   1   9
HETATM    9  O   LIG     1      15.394  38.077  23.725  1.00  0.00    -0.390 OA
HETATM   10  H   LIG     1      15.020  37.313  24.238  1.00  0.00     0.210 HD
ENDBRANCH   1   9
TORSDOF 3
ENDMDL
MODEL 7
REMARK VINA RESULT:      -4.1      1.709      3.026
REMARK  3 active torsions:
REMARK  status: ('A' for Active; 'I' for Inactive)
REMARK    1  A    between atoms: C_2  and  C_5 
REMARK    2  A    between atoms: C_5  and  C_8 
REMARK    3  A    between atoms: C_5  and  O_7 
ROOT
HETATM    1  C   LIG     1      16.895  36.835  22.854  1.00  0.00     0.060 C 
HETATM    2  C   LIG     1      15.396  36.827  22.459  1.00  0.00     0.046 C 
ENDROOT
BRANCH   1   3
HETATM    3  C   LIG     1      17.603  38.224  22.487  1.00  0.00    -0.021 C 
HETATM    4  C   LIG     1      18.710  38.614  23.493  1.00  0.00     0.017 C 
HETATM    5  C   LIG     1      16.568  39.379  22.457  1.00  0.00     0.017 C 
HETATM    6  C   LIG     1      18.253  38.175  21.077  1.00  0.00     0.017 C 
ENDBRANCH   1   3
BRANCH   1   7
HETATM    7  C   LIG     1      17.033  36.434  24.375  1.00  0.00     0.033 C 
HETATM    8  C   LIG     1      17.325  34.956  24.685  1.00  0.00     0.008 C 
ENDBRANCH   1   7
BRANCH   1   9
HETATM    9  O   LIG     1      17.483  35.817  22.071  1.00  0.00    -0.390 OA
HETATM   10  H   LIG     1      16.786  35.406  21.495  1.00  0.00     0.210 HD
ENDBRANCH   1   9
TORSDOF 3
ENDMDL
MODEL 8
REMARK VINA RESULT:      -3.8      2.302      4.279
REMARK  3 active torsions:
REMARK  status: ('A' for Active; 'I' for Inactive)
REMARK    1  A    between atoms: C_2  and  C_5 
REMARK    2  A    between atoms: C_5  and  C_8 
REMARK    3  A    between atoms: C_5  and  O_7 
ROOT
HETATM    1  C   LIG     1      15.814  35.140  20.563  1.00  0.00     0.060 C 
HETATM    2  C   LIG     1      14.382  35.707  20.732  1.00  0.00     0.046 C 
ENDROOT
BRANCH   1   3
HETATM    3  C   LIG     1      16.876  35.915  21.478  1.00  0.00    -0.021 C 
HETATM    4  C   LIG     1      16.281  37.174  22.147  1.00  0.00     0.017 C 
HETATM    5  C   LIG     1      18.101  36.364  20.639  1.00  0.00     0.017 C 
HETATM    6  C   LIG     1      17.426  35.003  22.609  1.00  0.00     0.017 C 
ENDBRANCH   1   3
BRANCH   1   7
HETATM    7  C   LIG     1      15.788  33.580  20.802  1.00  0.00     0.033 C 
HETATM    8  C   LIG     1      15.364  32.697  19.616  1.00  0.00     0.008 C 
ENDBRANCH   1   7
BRANCH   1   9
HETATM    9  O   LIG     1      16.141  35.377  19.208  1.00  0.00    -0.390 OA
HETATM   10  H   LIG     1      17.107  35.600  19.141  1.00  0.00     0.210 HD
ENDBRANCH   1   9
TORSDOF 3
ENDMDL
MODEL 9
REMARK VINA RESULT:      -3.6     18.873     20.292
REMARK  3 active torsions:
REMARK  status: ('A' for Active; 'I' for Inactive)
REMARK    1  A    between atoms: C_2  and  C_5 
REMARK    2  A    between atoms: C_5  and  C_8 
REMARK    3  A    between atoms: C_5  and  O_7 
ROOT
HETATM    1  C   LIG     1      21.460  23.298  35.952  1.00  0.00     0.060 C 
HETATM    2  C   LIG     1      20.231  22.379  36.169  1.00  0.00     0.046 C 
ENDROOT
BRANCH   1   3
HETATM    3  C   LIG     1      22.734  22.800  36.786  1.00  0.00    -0.021 C 
HETATM    4  C   LIG     1      22.923  23.578  38.108  1.00  0.00     0.017 C 
HETATM    5  C   LIG     1      24.034  22.964  35.955  1.00  0.00     0.017 C 
HETATM    6  C   LIG     1      22.626  21.293  37.145  1.00  0.00     0.017 C 
ENDBRANCH   1   3
BRANCH   1   7
HETATM    7  C   LIG     1      21.732  23.446  34.404  1.00  0.00     0.033 C 
HETATM    8  C   LIG     1      20.603  23.020  33.451  1.00  0.00     0.008 C 
ENDBRANCH   1   7
BRANCH   1   9
HETATM    9  O   LIG     1      21.066  24.558  36.457  1.00  0.00    -0.390 OA
HETATM   10  H   LIG     1      21.281  24.602  37.426  1.00  0.00     0.210 HD
ENDBRANCH   1   9
TORSDOF 3
ENDMDL
MODEL 10
REMARK VINA RESULT:      -3.6      1.456      2.073
REMARK  3 active torsions:
REMARK  status: ('A' for Active; 'I' for Inactive)
REMARK    1  A    between atoms: C_2  and  C_5 
REMARK    2  A    between atoms: C_5  and  C_8 
REMARK    3  A    between atoms: C_5  and  O_7 
ROOT
HETATM    1  C   LIG     1      16.906  37.013  22.937  1.00  0.00     0.060 C 
HETATM    2  C   LIG     1      17.208  36.324  24.291  1.00  0.00     0.046 C 
ENDROOT
BRANCH   1   3
HETATM    3  C   LIG     1      16.795  35.956  21.738  1.00  0.00    -0.021 C 
HETATM    4  C   LIG     1      15.351  35.802  21.210  1.00  0.00     0.017 C 
HETATM    5  C   LIG     1      17.281  34.555  22.194  1.00  0.00     0.017 C 
HETATM    6  C   LIG     1      17.689  36.365  20.535  1.00  0.00     0.017 C 
ENDBRANCH   1   3
BRANCH   1   7
HETATM    7  C   LIG     1      15.631  37.932  23.093  1.00  0.00     0.033 C 
HETATM    8  C   LIG     1      15.702  39.339  22.476  1.00  0.00     0.008 C 
ENDBRANCH   1   7
BRANCH   1   9
HETATM    9  O   LIG     1      18.024  37.843  22.694  1.00  0.00    -0.390 OA
HETATM   10  H   LIG     1      18.844  37.282  22.664  1.00  0.00     0.210 HD
ENDBRANCH   1   9
TORSDOF 3
ENDMDL
MODEL 11
REMARK VINA RESULT:      -3.5      7.232      8.417
REMARK  3 active torsions:
REMARK  status: ('A' for Active; 'I' for Inactive)
REMARK    1  A    between atoms: C_2  and  C_5 
REMARK    2  A    between atoms: C_5  and  C_8 
REMARK    3  A    between atoms: C_5  and  O_7 
ROOT
HETATM    1  C   LIG     1      15.204  32.698  16.569  1.00  0.00     0.060 C 
HETATM    2  C   LIG     1      14.827  34.189  16.763  1.00  0.00     0.046 C 
ENDROOT
BRANCH   1   3
HETATM    3  C   LIG     1      13.932  31.735  16.714  1.00  0.00    -0.021 C 
HETATM    4  C   LIG     1      12.592  32.495  16.594  1.00  0.00     0.017 C 
HETATM    5  C   LIG     1      13.941  31.013  18.086  1.00  0.00     0.017 C 
HETATM    6  C   LIG     1      13.933  30.623  15.628  1.00  0.00     0.017 C 
ENDBRANCH   1   3
BRANCH   1   7
HETATM    7  C   LIG     1      15.977  32.530  15.203  1.00  0.00     0.033 C 
HETATM    8  C   LIG     1      17.213  33.418  14.984  1.00  0.00     0.008 C 
ENDBRANCH   1   7
BRANCH   1   9
HETATM    9  O   LIG     1      16.099  32.409  17.625  1.00  0.00    -0.390 OA
HETATM   10  H   LIG     1      17.029  32.426  17.276  1.00  0.00     0.210 HD
ENDBRANCH   1   9
TORSDOF 3
ENDMDL
MODEL 12
REMARK VINA RESULT:      -3.4     15.760     17.245
REMARK  3 active torsions:
REMARK  status: ('A' for Active; 'I' for Inactive)
REMARK    1  A    between atoms: C_2  and  C_5 
REMARK    2  A    between atoms: C_5  and  C_8 
REMARK    3  A    between atoms: C_5  and  O_7 
ROOT
HETATM    1  C   LIG     1      23.978  21.840  20.058  1.00  0.00     0.060 C 
HETATM    2  C   LIG     1      25.086  22.893  19.804  1.00  0.00     0.046 C 
ENDROOT
BRANCH   1   3
HETATM    3  C   LIG     1      23.255  22.060  21.470  1.00  0.00    -0.021 C 
HETATM    4  C   LIG     1      22.834  20.731  22.138  1.00  0.00     0.017 C 
HETATM    5  C   LIG     1      21.979  22.927  21.306  1.00  0.00     0.017 C 
HETATM    6  C   LIG     1      24.176  22.812  22.470  1.00  0.00     0.017 C 
ENDBRANCH   1   3
BRANCH   1   7
HETATM    7  C   LIG     1      22.985  21.824  18.831  1.00  0.00     0.033 C 
HETATM    8  C   LIG     1      22.805  20.486  18.093  1.00  0.00     0.008 C 
ENDBRANCH   1   7
BRANCH   1   9
HETATM    9  O   LIG     1      24.657  20.601  20.097  1.00  0.00    -0.390 OA
HETATM   10  H   LIG     1      24.651  20.199  19.188  1.00  0.00     0.210 HD
ENDBRANCH   1   9
TORSDOF 3
ENDMDL
MODEL 13
REMARK VINA RESULT:      -3.3     17.959     19.471
REMARK  3 active torsions:
REMARK  status: ('A' for Active; 'I' for Inactive)
REMARK    1  A    between atoms: C_2  and  C_5 
REMARK    2  A    between atoms: C_5  and  C_8 
REMARK    3  A    between atoms: C_5  and  O_7 
ROOT
HETATM    1  C   LIG     1      19.903  22.268  34.708  1.00  0.00     0.060 C 
HETATM    2  C   LIG     1      19.464  20.866  35.200  1.00  0.00     0.046 C 
ENDROOT
BRANCH   1   3
HETATM    3  C   LIG     1      21.139  22.838  35.551  1.00  0.00    -0.021 C 
HETATM    4  C   LIG     1      20.754  24.050  36.430  1.00  0.00     0.017 C 
HETATM    5  C   LIG     1      22.287  23.289  34.609  1.00  0.00     0.017 C 
HETATM    6  C   LIG     1      21.737  21.755  36.489  1.00  0.00     0.017 C 
ENDBRANCH   1   3
BRANCH   1   7
HETATM    7  C   LIG     1      20.165  22.214  33.152  1.00  0.00     0.033 C 
HETATM    8  C   LIG     1      19.450  23.264  32.284  1.00  0.00     0.008 C 
ENDBRANCH   1   7
BRANCH   1   9
HETATM    9  O   LIG     1      18.785  23.101  34.941  1.00  0.00    -0.390 OA
HETATM   10  H   LIG     1      18.047  22.556  35.320  1.00  0.00     0.210 HD
ENDBRANCH   1   9
TORSDOF 3
ENDMDL
MODEL 14
REMARK VINA RESULT:      -3.3     17.386     18.679
REMARK  3 active torsions:
REMARK  status: ('A' for Active; 'I' for Inactive)
REMARK    1  A    between atoms: C_2  and  C_5 
REMARK    2  A    between atoms: C_5  and  C_8 
REMARK    3  A    between atoms: C_5  and  O_7 
ROOT
HETATM    1  C   LIG     1      26.410  30.455  37.024  1.00  0.00     0.060 C 
HETATM    2  C   LIG     1      25.750  31.532  36.126  1.00  0.00     0.046 C 
ENDROOT
BRANCH   1   3
HETATM    3  C   LIG     1      27.213  29.369  36.165  1.00  0.00    -0.021 C 
HETATM    4  C   LIG     1      26.612  29.158  34.757  1.00  0.00     0.017 C 
HETATM    5  C   LIG     1      27.219  27.994  36.883  1.00  0.00     0.017 C 
HETATM    6  C   LIG     1      28.701  29.776  35.978  1.00  0.00     0.017 C 
ENDBRANCH   1   3
BRANCH   1   7
HETATM    7  C   LIG     1      27.286  31.166  38.129  1.00  0.00     0.033 C 
HETATM    8  C   LIG     1      27.391  32.699  38.061  1.00  0.00     0.008 C 
ENDBRANCH   1   7
BRANCH   1   9
HETATM    9  O   LIG     1      25.331  29.805  37.664  1.00  0.00    -0.390 OA
HETATM   10  H   LIG     1      24.925  30.423  38.327  1.00  0.00     0.210 HD
ENDBRANCH   1   9
TORSDOF 3
ENDMDL
MODEL 15
REMARK VINA RESULT:      -3.3     15.543     17.186
REMARK  3 active torsions:
REMARK  status: ('A' for Active; 'I' for Inactive)
REMARK    1  A    between atoms: C_2  and  C_5 
REMARK    2  A    between atoms: C_5  and  C_8 
REMARK    3  A    between atoms: C_5  and  O_7 
ROOT
HETATM    1  C   LIG     1      23.210  21.807  19.313  1.00  0.00     0.060 C 
HETATM    2  C   LIG     1      23.000  20.304  18.997  1.00  0.00     0.046 C 
ENDROOT
BRANCH   1   3
HETATM    3  C   LIG     1      23.195  22.094  20.888  1.00  0.00    -0.021 C 
HETATM    4  C   LIG     1      23.173  20.799  21.732  1.00  0.00     0.017 C 
HETATM    5  C   LIG     1      21.951  22.933  21.284  1.00  0.00     0.017 C 
HETATM    6  C   LIG     1      24.439  22.914  21.329  1.00  0.00     0.017 C 
ENDBRANCH   1   3
BRANCH   1   7
HETATM    7  C   LIG     1      24.517  22.313  18.587  1.00  0.00     0.033 C 
HETATM    8  C   LIG     1      25.427  21.245  17.958  1.00  0.00     0.008 C 
ENDBRANCH   1   7
BRANCH   1   9
HETATM    9  O   LIG     1      22.098  22.459  18.734  1.00  0.00    -0.390 OA
HETATM   10  H   LIG     1      21.730  23.114  19.384  1.00  0.00     0.210 HD
ENDBRANCH   1   9
TORSDOF 3
ENDMDL
MODEL 16
REMARK VINA RESULT:      -3.2     15.903     17.576
REMARK  3 active torsions:
REMARK  status: ('A' for Active; 'I' for Inactive)
REMARK    1  A    between atoms: C_2  and  C_5 
REMARK    2  A    between atoms: C_5  and  C_8 
REMARK    3  A    between atoms: C_5  and  O_7 
ROOT
HETATM    1  C   LIG     1      23.618  21.250  20.068  1.00  0.00     0.060 C 
HETATM    2  C   LIG     1      22.887  21.881  18.855  1.00  0.00     0.046 C 
ENDROOT
BRANCH   1   3
HETATM    3  C   LIG     1      23.169  21.921  21.451  1.00  0.00    -0.021 C 
HETATM    4  C   LIG     1      24.301  22.740  22.112  1.00  0.00     0.017 C 
HETATM    5  C   LIG     1      22.719  20.838  22.467  1.00  0.00     0.017 C 
HETATM    6  C   LIG     1      21.959  22.874  21.256  1.00  0.00     0.017 C 
ENDBRANCH   1   3
BRANCH   1   7
HETATM    7  C   LIG     1      23.431  19.683  20.031  1.00  0.00     0.033 C 
HETATM    8  C   LIG     1      22.570  19.107  18.894  1.00  0.00     0.008 C 
ENDBRANCH   1   7
BRANCH   1   9
HETATM    9  O   LIG     1      24.985  21.540  19.858  1.00  0.00    -0.390 OA
HETATM   10  H   LIG     1      25.104  22.525  19.803  1.00  0.00     0.210 HD
ENDBRANCH   1   9
TORSDOF 3
ENDMDL
MODEL 17
REMARK VINA RESULT:      -3.1      7.182      9.087
REMARK  3 active torsions:
REMARK  status: ('A' for Active; 'I' for Inactive)
REMARK    1  A    between atoms: C_2  and  C_5 
REMARK    2  A    between atoms: C_5  and  C_8 
REMARK    3  A    between atoms: C_5  and  O_7 
ROOT
HETATM    1  C   LIG     1      15.706  32.106  15.695  1.00  0.00     0.060 C 
HETATM    2  C   LIG     1      16.084  33.169  14.632  1.00  0.00     0.046 C 
ENDROOT
BRANCH   1   3
HETATM    3  C   LIG     1      14.829  32.731  16.880  1.00  0.00    -0.021 C 
HETATM    4  C   LIG     1      14.865  34.277  16.898  1.00  0.00     0.017 C 
HETATM    5  C   LIG     1      15.334  32.234  18.260  1.00  0.00     0.017 C 
HETATM    6  C   LIG     1      13.339  32.303  16.774  1.00  0.00     0.017 C 
ENDBRANCH   1   3
BRANCH   1   7
HETATM    7  C   LIG     1      15.022  30.876  14.980  1.00  0.00     0.033 C 
HETATM    8  C   LIG     1      15.371  30.644  13.500  1.00  0.00     0.008 C 
ENDBRANCH   1   7
BRANCH   1   9
HETATM    9  O   LIG     1      16.939  31.677  16.235  1.00  0.00    -0.390 OA
HETATM   10  H   LIG     1      17.023  30.695  16.114  1.00  0.00     0.210 HD
ENDBRANCH   1   9
TORSDOF 3
ENDMDL
MODEL 18
REMARK VINA RESULT:      -3.1     16.375     17.822
REMARK  3 active torsions:
REMARK  status: ('A' for Active; 'I' for Inactive)
REMARK    1  A    between atoms: C_2  and  C_5 
REMARK    2  A    between atoms: C_5  and  C_8 
REMARK    3  A    between atoms: C_5  and  O_7 
ROOT
HETATM    1  C   LIG     1      23.452  21.600  19.075  1.00  0.00     0.060 C 
HETATM    2  C   LIG     1      24.699  22.309  18.490  1.00  0.00     0.046 C 
ENDROOT
BRANCH   1   3
HETATM    3  C   LIG     1      23.416  20.044  18.699  1.00  0.00    -0.021 C 
HETATM    4  C   LIG     1      23.003  19.151  19.892  1.00  0.00     0.017 C 
HETATM    5  C   LIG     1      24.808  19.563  18.213  1.00  0.00     0.017 C 
HETATM    6  C   LIG     1      22.420  19.761  17.541  1.00  0.00     0.017 C 
ENDBRANCH   1   3
BRANCH   1   7
HETATM    7  C   LIG     1      23.373  21.881  20.627  1.00  0.00     0.033 C 
HETATM    8  C   LIG     1      22.196  22.737  21.125  1.00  0.00     0.008 C 
ENDBRANCH   1   7
BRANCH   1   9
HETATM    9  O   LIG     1      22.350  22.231  18.453  1.00  0.00    -0.390 OA
HETATM   10  H   LIG     1      21.529  22.048  18.982  1.00  0.00     0.210 HD
ENDBRANCH   1   9
TORSDOF 3
ENDMDL
MODEL 19
REMARK VINA RESULT:      -3.0     17.020     18.714
REMARK  3 active torsions:
REMARK  status: ('A' for Active; 'I' for Inactive)
REMARK    1  A    between atoms: C_2  and  C_5 
REMARK    2  A    between atoms: C_5  and  C_8 
REMARK    3  A    between atoms: C_5  and  O_7 
ROOT
HETATM    1  C   LIG     1      27.152  30.750  35.831  1.00  0.00     0.060 C 
HETATM    2  C   LIG     1      25.772  31.448  35.730  1.00  0.00     0.046 C 
ENDROOT
BRANCH   1   3
HETATM    3  C   LIG     1      27.950  31.190  37.148  1.00  0.00    -0.021 C 
HETATM    4  C   LIG     1      29.371  31.715  36.838  1.00  0.00     0.017 C 
HETATM    5  C   LIG     1      28.095  29.997  38.129  1.00  0.00     0.017 C 
HETATM    6  C   LIG     1      27.200  32.309  37.921  1.00  0.00     0.017 C 
ENDBRANCH   1   3
BRANCH   1   7
HETATM    7  C   LIG     1      26.957  29.189  35.698  1.00  0.00     0.033 C 
HETATM    8  C   LIG     1      26.628  28.642  34.299  1.00  0.00     0.008 C 
ENDBRANCH   1   7
BRANCH   1   9
HETATM    9  O   LIG     1      27.873  31.206  34.704  1.00  0.00    -0.390 OA
HETATM   10  H   LIG     1      28.077  32.171  34.817  1.00  0.00     0.210 HD
ENDBRANCH   1   9
TORSDOF 3
ENDMDL
