MODEL 1
REMARK VINA RESULT:      -8.5      0.000      0.000
REMARK  5 active torsions:
REMARK  status: ('A' for Active; 'I' for Inactive)
REMARK    1  A    between atoms: C_2  and  CA_4 
REMARK    2  A    between atoms: C_2  and  OXT_3 
REMARK    3  A    between atoms: CA_4  and  CB_6 
REMARK    4  A    between atoms: CA_4  and  N_5 
REMARK    5  A    between atoms: CB_6  and  CG_7 
ROOT
ATOM      1  CG  TRP A   1      16.749  36.149  22.978  1.00  0.00    -0.028 A 
ATOM      2  CD1 TRP A   1      16.603  37.529  22.817  1.00  0.00     0.096 A 
ATOM      3  NE1 TRP A   1      16.971  38.179  23.944  1.00  0.00    -0.365 N 
ATOM      4  CE2 TRP A   1      17.357  37.231  24.813  1.00  0.00     0.042 A 
ATOM      5  CD2 TRP A   1      17.241  35.982  24.258  1.00  0.00    -0.002 A 
ATOM      6  CE3 TRP A   1      17.600  34.832  24.962  1.00  0.00     0.014 A 
ATOM      7  CZ3 TRP A   1      18.085  34.989  26.274  1.00  0.00     0.001 A 
ATOM      8  CH2 TRP A   1      18.201  36.275  26.845  1.00  0.00     0.002 A 
ATOM      9  CZ2 TRP A   1      17.837  37.416  26.110  1.00  0.00     0.030 A 
ATOM     10  HE1 TRP A   1      16.968  39.213  24.099  1.00  0.00     0.165 HD
ENDROOT
BRANCH   1  11
ATOM     11  CB  TRP A   1      16.509  35.045  21.976  1.00  0.00     0.087 C 
BRANCH  11  12
ATOM     12  CA  TRP A   1      15.609  35.443  20.783  1.00  0.00     0.318 C 
BRANCH  12  13
ATOM     13  C   TRP A   1      15.635  34.354  19.743  1.00  0.00     0.174 C 
ATOM     14  O   TRP A   1      15.913  33.170  20.073  1.00  0.00    -0.648 OA
BRANCH  13  15
ATOM     15  OXT TRP A   1      15.401  34.647  18.402  1.00  0.00    -0.775 OA
ATOM     16  HXT TRP A   1      14.466  34.841  18.060  1.00  0.00     0.167 HD
ENDBRANCH  13  15
ENDBRANCH  12  13
BRANCH  12  17
ATOM     17  N   TRP A   1      14.224  35.686  21.202  1.00  0.00     0.093 N 
ATOM     18  H1  TRP A   1      13.873  34.871  21.757  1.00  0.00     0.314 HD
ATOM     19  H2  TRP A   1      14.192  36.521  21.829  1.00  0.00     0.314 HD
ENDBRANCH  12  17
ENDBRANCH  11  12
ENDBRANCH   1  11
TORSDOF 5
ENDMDL
MODEL 2
REMARK VINA RESULT:      -8.1      2.218      3.621
REMARK  5 active torsions:
REMARK  status: ('A' for Active; 'I' for Inactive)
REMARK    1  A    between atoms: C_2  and  CA_4 
REMARK    2  A    between atoms: C_2  and  OXT_3 
REMARK    3  A    between atoms: CA_4  and  CB_6 
REMARK    4  A    between atoms: CA_4  and  N_5 
REMARK    5  A    between atoms: CB_6  and  CG_7 
ROOT
ATOM      1  CG  TRP A   1      16.829  36.448  22.100  1.00  0.00    -0.028 A 
ATOM      2  CD1 TRP A   1      16.450  37.402  23.049  1.00  0.00     0.096 A 
ATOM      3  NE1 TRP A   1      17.057  38.584  22.802  1.00  0.00    -0.365 N 
ATOM      4  CE2 TRP A   1      17.807  38.396  21.704  1.00  0.00     0.042 A 
ATOM      5  CD2 TRP A   1      17.689  37.109  21.245  1.00  0.00    -0.002 A 
ATOM      6  CE3 TRP A   1      18.361  36.675  20.101  1.00  0.00     0.014 A 
ATOM      7  CZ3 TRP A   1      19.178  37.602  19.427  1.00  0.00     0.001 A 
ATOM      8  CH2 TRP A   1      19.301  38.926  19.903  1.00  0.00     0.002 A 
ATOM      9  CZ2 TRP A   1      18.607  39.336  21.055  1.00  0.00     0.030 A 
ATOM     10  HE1 TRP A   1      16.951  39.468  23.350  1.00  0.00     0.165 HD
ENDROOT
BRANCH   1  11
ATOM     11  CB  TRP A   1      16.365  35.019  21.954  1.00  0.00     0.087 C 
BRANCH  11  12
ATOM     12  CA  TRP A   1      15.140  34.831  21.031  1.00  0.00     0.318 C 
BRANCH  12  13
ATOM     13  C   TRP A   1      15.551  34.085  19.788  1.00  0.00     0.174 C 
ATOM     14  O   TRP A   1      15.927  32.885  19.865  1.00  0.00    -0.648 OA
BRANCH  13  15
ATOM     15  OXT TRP A   1      15.567  34.723  18.550  1.00  0.00    -0.775 OA
ATOM     16  HXT TRP A   1      15.078  35.598  18.401  1.00  0.00     0.167 HD
ENDBRANCH  13  15
ENDBRANCH  12  13
BRANCH  12  17
ATOM     17  N   TRP A   1      14.057  34.103  21.702  1.00  0.00     0.093 N 
ATOM     18  H1  TRP A   1      13.131  34.447  21.357  1.00  0.00     0.314 HD
ATOM     19  H2  TRP A   1      14.119  33.089  21.460  1.00  0.00     0.314 HD
ENDBRANCH  12  17
ENDBRANCH  11  12
ENDBRANCH   1  11
TORSDOF 5
ENDMDL
MODEL 3
REMARK VINA RESULT:      -7.8      3.834      5.712
REMARK  5 active torsions:
REMARK  status: ('A' for Active; 'I' for Inactive)
REMARK    1  A    between atoms: C_2  and  CA_4 
REMARK    2  A    between atoms: C_2  and  OXT_3 
REMARK    3  A    between atoms: CA_4  and  CB_6 
REMARK    4  A    between atoms: CA_4  and  N_5 
REMARK    5  A    between atoms: CB_6  and  CG_7 
ROOT
ATOM      1  CG  TRP A   1      16.929  36.637  22.127  1.00  0.00    -0.028 A 
ATOM      2  CD1 TRP A   1      16.658  35.553  21.288  1.00  0.00     0.096 A 
ATOM      3  NE1 TRP A   1      17.296  35.697  20.105  1.00  0.00    -0.365 N 
ATOM      4  CE2 TRP A   1      17.976  36.852  20.186  1.00  0.00     0.042 A 
ATOM      5  CD2 TRP A   1      17.782  37.450  21.405  1.00  0.00    -0.002 A 
ATOM      6  CE3 TRP A   1      18.400  38.657  21.735  1.00  0.00     0.014 A 
ATOM      7  CZ3 TRP A   1      19.234  39.253  20.771  1.00  0.00     0.001 A 
ATOM      8  CH2 TRP A   1      19.431  38.638  19.516  1.00  0.00     0.002 A 
ATOM      9  CZ2 TRP A   1      18.799  37.419  19.213  1.00  0.00     0.030 A 
ATOM     10  HE1 TRP A   1      17.274  35.033  19.298  1.00  0.00     0.165 HD
ENDROOT
BRANCH   1  11
ATOM     11  CB  TRP A   1      16.477  36.875  23.547  1.00  0.00     0.087 C 
BRANCH  11  12
ATOM     12  CA  TRP A   1      17.467  36.385  24.629  1.00  0.00     0.318 C 
BRANCH  12  13
ATOM     13  C   TRP A   1      17.787  37.516  25.572  1.00  0.00     0.174 C 
ATOM     14  O   TRP A   1      17.146  38.598  25.504  1.00  0.00    -0.648 OA
BRANCH  13  15
ATOM     15  OXT TRP A   1      18.824  37.398  26.494  1.00  0.00    -0.775 OA
ATOM     16  HXT TRP A   1      19.762  37.717  26.277  1.00  0.00     0.167 HD
ENDBRANCH  13  15
ENDBRANCH  12  13
BRANCH  12  17
ATOM     17  N   TRP A   1      16.928  35.252  25.389  1.00  0.00     0.093 N 
ATOM     18  H1  TRP A   1      16.868  34.408  24.773  1.00  0.00     0.314 HD
ATOM     19  H2  TRP A   1      17.579  35.017  26.170  1.00  0.00     0.314 HD
ENDBRANCH  12  17
ENDBRANCH  11  12
ENDBRANCH   1  11
TORSDOF 5
ENDMDL
MODEL 4
REMARK VINA RESULT:      -7.3      2.264      2.715
REMARK  5 active torsions:
REMARK  status: ('A' for Active; 'I' for Inactive)
REMARK    1  A    between atoms: C_2  and  CA_4 
REMARK    2  A    between atoms: C_2  and  OXT_3 
REMARK    3  A    between atoms: CA_4  and  CB_6 
REMARK    4  A    between atoms: CA_4  and  N_5 
REMARK    5  A    between atoms: CB_6  and  CG_7 
ROOT
ATOM      1  CG  TRP A   1      17.120  37.973  23.479  1.00  0.00    -0.028 A 
ATOM      2  CD1 TRP A   1      17.280  39.081  24.315  1.00  0.00     0.096 A 
ATOM      3  NE1 TRP A   1      17.524  38.686  25.585  1.00  0.00    -0.365 N 
ATOM      4  CE2 TRP A   1      17.531  37.343  25.563  1.00  0.00     0.042 A 
ATOM      5  CD2 TRP A   1      17.294  36.873  24.297  1.00  0.00    -0.002 A 
ATOM      6  CE3 TRP A   1      17.270  35.506  24.016  1.00  0.00     0.014 A 
ATOM      7  CZ3 TRP A   1      17.492  34.612  25.080  1.00  0.00     0.001 A 
ATOM      8  CH2 TRP A   1      17.733  35.098  26.384  1.00  0.00     0.002 A 
ATOM      9  CZ2 TRP A   1      17.757  36.481  26.636  1.00  0.00     0.030 A 
ATOM     10  HE1 TRP A   1      17.688  39.304  26.412  1.00  0.00     0.165 HD
ENDROOT
BRANCH   1  11
ATOM     11  CB  TRP A   1      16.885  37.934  21.988  1.00  0.00     0.087 C 
BRANCH  11  12
ATOM     12  CA  TRP A   1      18.169  37.806  21.137  1.00  0.00     0.318 C 
BRANCH  12  13
ATOM     13  C   TRP A   1      18.017  36.671  20.158  1.00  0.00     0.174 C 
ATOM     14  O   TRP A   1      18.669  36.674  19.079  1.00  0.00    -0.648 OA
BRANCH  13  15
ATOM     15  OXT TRP A   1      17.123  35.633  20.408  1.00  0.00    -0.775 OA
ATOM     16  HXT TRP A   1      16.505  35.651  21.211  1.00  0.00     0.167 HD
ENDBRANCH  13  15
ENDBRANCH  12  13
BRANCH  12  17
ATOM     17  N   TRP A   1      18.467  39.044  20.408  1.00  0.00     0.093 N 
ATOM     18  H1  TRP A   1      19.406  38.970  19.953  1.00  0.00     0.314 HD
ATOM     19  H2  TRP A   1      17.764  39.176  19.647  1.00  0.00     0.314 HD
ENDBRANCH  12  17
ENDBRANCH  11  12
ENDBRANCH   1  11
TORSDOF 5
ENDMDL
MODEL 5
REMARK VINA RESULT:      -7.0      5.151      9.168
REMARK  5 active torsions:
REMARK  status: ('A' for Active; 'I' for Inactive)
REMARK    1  A    between atoms: C_2  and  CA_4 
REMARK    2  A    between atoms: C_2  and  OXT_3 
REMARK    3  A    between atoms: CA_4  and  CB_6 
REMARK    4  A    between atoms: CA_4  and  N_5 
REMARK    5  A    between atoms: CB_6  and  CG_7 
ROOT
ATOM      1  CG  TRP A   1      15.321  32.599  16.615  1.00  0.00    -0.028 A 
ATOM      2  CD1 TRP A   1      16.454  32.902  15.856  1.00  0.00     0.096 A 
ATOM      3  NE1 TRP A   1      16.517  32.111  14.761  1.00  0.00    -0.365 N 
ATOM      4  CE2 TRP A   1      15.434  31.318  14.811  1.00  0.00     0.042 A 
ATOM      5  CD2 TRP A   1      14.679  31.590  15.923  1.00  0.00    -0.002 A 
ATOM      6  CE3 TRP A   1      13.491  30.907  16.187  1.00  0.00     0.014 A 
ATOM      7  CZ3 TRP A   1      13.086  29.916  15.274  1.00  0.00     0.001 A 
ATOM      8  CH2 TRP A   1      13.866  29.634  14.131  1.00  0.00     0.002 A 
ATOM      9  CZ2 TRP A   1      15.056  30.343  13.889  1.00  0.00     0.030 A 
ATOM     10  HE1 TRP A   1      17.254  32.126  14.020  1.00  0.00     0.165 HD
ENDROOT
BRANCH   1  11
ATOM     11  CB  TRP A   1      14.823  33.256  17.881  1.00  0.00     0.087 C 
BRANCH  11  12
ATOM     12  CA  TRP A   1      15.281  32.568  19.187  1.00  0.00     0.318 C 
BRANCH  12  13
ATOM     13  C   TRP A   1      15.326  33.579  20.303  1.00  0.00     0.174 C 
ATOM     14  O   TRP A   1      16.267  34.416  20.362  1.00  0.00    -0.648 OA
BRANCH  13  15
ATOM     15  OXT TRP A   1      14.362  33.571  21.307  1.00  0.00    -0.775 OA
ATOM     16  HXT TRP A   1      13.459  34.014  21.175  1.00  0.00     0.167 HD
ENDBRANCH  13  15
ENDBRANCH  12  13
BRANCH  12  17
ATOM     17  N   TRP A   1      14.392  31.463  19.563  1.00  0.00     0.093 N 
ATOM     18  H1  TRP A   1      13.395  31.773  19.498  1.00  0.00     0.314 HD
ATOM     19  H2  TRP A   1      14.515  30.675  18.890  1.00  0.00     0.314 HD
ENDBRANCH  12  17
ENDBRANCH  11  12
ENDBRANCH   1  11
TORSDOF 5
ENDMDL
MODEL 6
REMARK VINA RESULT:      -6.5      5.200      9.386
REMARK  5 active torsions:
REMARK  status: ('A' for Active; 'I' for Inactive)
REMARK    1  A    between atoms: C_2  and  CA_4 
REMARK    2  A    between atoms: C_2  and  OXT_3 
REMARK    3  A    between atoms: CA_4  and  CB_6 
REMARK    4  A    between atoms: CA_4  and  N_5 
REMARK    5  A    between atoms: CB_6  and  CG_7 
ROOT
ATOM      1  CG  TRP A   1      13.985  31.995  16.990  1.00  0.00    -0.028 A 
ATOM      2  CD1 TRP A   1      12.755  31.357  17.169  1.00  0.00     0.096 A 
ATOM      3  NE1 TRP A   1      12.545  30.449  16.189  1.00  0.00    -0.365 N 
ATOM      4  CE2 TRP A   1      13.629  30.496  15.398  1.00  0.00     0.042 A 
ATOM      5  CD2 TRP A   1      14.531  31.421  15.857  1.00  0.00    -0.002 A 
ATOM      6  CE3 TRP A   1      15.749  31.641  15.211  1.00  0.00     0.014 A 
ATOM      7  CZ3 TRP A   1      16.028  30.882  14.060  1.00  0.00     0.001 A 
ATOM      8  CH2 TRP A   1      15.097  29.931  13.586  1.00  0.00     0.002 A 
ATOM      9  CZ2 TRP A   1      13.880  29.728  14.261  1.00  0.00     0.030 A 
ATOM     10  HE1 TRP A   1      11.711  29.828  16.080  1.00  0.00     0.165 HD
ENDROOT
BRANCH   1  11
ATOM     11  CB  TRP A   1      14.652  33.033  17.860  1.00  0.00     0.087 C 
BRANCH  11  12
ATOM     12  CA  TRP A   1      15.234  32.486  19.184  1.00  0.00     0.318 C 
BRANCH  12  13
ATOM     13  C   TRP A   1      15.283  33.589  20.210  1.00  0.00     0.174 C 
ATOM     14  O   TRP A   1      16.175  34.477  20.143  1.00  0.00    -0.648 OA
BRANCH  13  15
ATOM     15  OXT TRP A   1      14.379  33.614  21.268  1.00  0.00    -0.775 OA
ATOM     16  HXT TRP A   1      13.380  33.531  21.111  1.00  0.00     0.167 HD
ENDBRANCH  13  15
ENDBRANCH  12  13
BRANCH  12  17
ATOM     17  N   TRP A   1      14.443  31.366  19.707  1.00  0.00     0.093 N 
ATOM     18  H1  TRP A   1      14.429  30.587  19.009  1.00  0.00     0.314 HD
ATOM     19  H2  TRP A   1      14.895  30.997  20.572  1.00  0.00     0.314 HD
ENDBRANCH  12  17
ENDBRANCH  11  12
ENDBRANCH   1  11
TORSDOF 5
ENDMDL
MODEL 7
REMARK VINA RESULT:      -6.5      8.424     10.171
REMARK  5 active torsions:
REMARK  status: ('A' for Active; 'I' for Inactive)
REMARK    1  A    between atoms: C_2  and  CA_4 
REMARK    2  A    between atoms: C_2  and  OXT_3 
REMARK    3  A    between atoms: CA_4  and  CB_6 
REMARK    4  A    between atoms: CA_4  and  N_5 
REMARK    5  A    between atoms: CB_6  and  CG_7 
ROOT
ATOM      1  CG  TRP A   1      16.473  32.438  14.199  1.00  0.00    -0.028 A 
ATOM      2  CD1 TRP A   1      16.096  31.519  13.217  1.00  0.00     0.096 A 
ATOM      3  NE1 TRP A   1      15.091  30.732  13.664  1.00  0.00    -0.365 N 
ATOM      4  CE2 TRP A   1      14.820  31.148  14.912  1.00  0.00     0.042 A 
ATOM      5  CD2 TRP A   1      15.637  32.189  15.271  1.00  0.00    -0.002 A 
ATOM      6  CE3 TRP A   1      15.534  32.804  16.519  1.00  0.00     0.014 A 
ATOM      7  CZ3 TRP A   1      14.561  32.320  17.412  1.00  0.00     0.001 A 
ATOM      8  CH2 TRP A   1      13.722  31.246  17.043  1.00  0.00     0.002 A 
ATOM      9  CZ2 TRP A   1      13.845  30.648  15.776  1.00  0.00     0.030 A 
ATOM     10  HE1 TRP A   1      14.614  29.966  13.136  1.00  0.00     0.165 HD
ENDROOT
BRANCH   1  11
ATOM     11  CB  TRP A   1      17.508  33.535  14.125  1.00  0.00     0.087 C 
BRANCH  11  12
ATOM     12  CA  TRP A   1      18.327  33.561  12.815  1.00  0.00     0.318 C 
BRANCH  12  13
ATOM     13  C   TRP A   1      17.852  34.694  11.942  1.00  0.00     0.174 C 
ATOM     14  O   TRP A   1      17.049  35.551  12.399  1.00  0.00    -0.648 OA
BRANCH  13  15
ATOM     15  OXT TRP A   1      18.255  34.782  10.612  1.00  0.00    -0.775 OA
ATOM     16  HXT TRP A   1      18.498  35.673  10.193  1.00  0.00     0.167 HD
ENDBRANCH  13  15
ENDBRANCH  12  13
BRANCH  12  17
ATOM     17  N   TRP A   1      19.764  33.710  13.072  1.00  0.00     0.093 N 
ATOM     18  H1  TRP A   1      19.971  33.477  14.071  1.00  0.00     0.314 HD
ATOM     19  H2  TRP A   1      20.294  33.033  12.480  1.00  0.00     0.314 HD
ENDBRANCH  12  17
ENDBRANCH  11  12
ENDBRANCH   1  11
TORSDOF 5
ENDMDL
MODEL 8
REMARK VINA RESULT:      -6.4      5.839      9.667
REMARK  5 active torsions:
REMARK  status: ('A' for Active; 'I' for Inactive)
REMARK    1  A    between atoms: C_2  and  CA_4 
REMARK    2  A    between atoms: C_2  and  OXT_3 
REMARK    3  A    between atoms: CA_4  and  CB_6 
REMARK    4  A    between atoms: CA_4  and  N_5 
REMARK    5  A    between atoms: CB_6  and  CG_7 
ROOT
ATOM      1  CG  TRP A   1      14.207  31.881  16.550  1.00  0.00    -0.028 A 
ATOM      2  CD1 TRP A   1      12.895  31.646  16.971  1.00  0.00     0.096 A 
ATOM      3  NE1 TRP A   1      12.337  30.648  16.248  1.00  0.00    -0.365 N 
ATOM      4  CE2 TRP A   1      13.281  30.241  15.384  1.00  0.00     0.042 A 
ATOM      5  CD2 TRP A   1      14.435  30.965  15.542  1.00  0.00    -0.002 A 
ATOM      6  CE3 TRP A   1      15.569  30.715  14.767  1.00  0.00     0.014 A 
ATOM      7  CZ3 TRP A   1      15.494  29.691  13.804  1.00  0.00     0.001 A 
ATOM      8  CH2 TRP A   1      14.304  28.949  13.641  1.00  0.00     0.002 A 
ATOM      9  CZ2 TRP A   1      13.179  29.220  14.439  1.00  0.00     0.030 A 
ATOM     10  HE1 TRP A   1      11.371  30.264  16.354  1.00  0.00     0.165 HD
ENDROOT
BRANCH   1  11
ATOM     11  CB  TRP A   1      15.219  32.858  17.100  1.00  0.00     0.087 C 
BRANCH  11  12
ATOM     12  CA  TRP A   1      14.893  33.398  18.511  1.00  0.00     0.318 C 
BRANCH  12  13
ATOM     13  C   TRP A   1      15.156  32.327  19.537  1.00  0.00     0.174 C 
ATOM     14  O   TRP A   1      16.308  31.831  19.654  1.00  0.00    -0.648 OA
BRANCH  13  15
ATOM     15  OXT TRP A   1      14.124  31.839  20.335  1.00  0.00    -0.775 OA
ATOM     16  HXT TRP A   1      14.274  31.073  20.981  1.00  0.00     0.167 HD
ENDBRANCH  13  15
ENDBRANCH  12  13
BRANCH  12  17
ATOM     17  N   TRP A   1      15.683  34.592  18.835  1.00  0.00     0.093 N 
ATOM     18  H1  TRP A   1      15.893  34.610  19.860  1.00  0.00     0.314 HD
ATOM     19  H2  TRP A   1      16.598  34.548  18.333  1.00  0.00     0.314 HD
ENDBRANCH  12  17
ENDBRANCH  11  12
ENDBRANCH   1  11
TORSDOF 5
ENDMDL
MODEL 9
REMARK VINA RESULT:      -6.4      7.946     10.091
REMARK  5 active torsions:
REMARK  status: ('A' for Active; 'I' for Inactive)
REMARK    1  A    between atoms: C_2  and  CA_4 
REMARK    2  A    between atoms: C_2  and  OXT_3 
REMARK    3  A    between atoms: CA_4  and  CB_6 
REMARK    4  A    between atoms: CA_4  and  N_5 
REMARK    5  A    between atoms: CB_6  and  CG_7 
ROOT
ATOM      1  CG  TRP A   1      16.125  32.566  15.360  1.00  0.00    -0.028 A 
ATOM      2  CD1 TRP A   1      15.545  33.199  16.462  1.00  0.00     0.096 A 
ATOM      3  NE1 TRP A   1      14.395  32.581  16.814  1.00  0.00    -0.365 N 
ATOM      4  CE2 TRP A   1      14.244  31.559  15.956  1.00  0.00     0.042 A 
ATOM      5  CD2 TRP A   1      15.281  31.514  15.059  1.00  0.00    -0.002 A 
ATOM      6  CE3 TRP A   1      15.357  30.526  14.077  1.00  0.00     0.014 A 
ATOM      7  CZ3 TRP A   1      14.327  29.569  14.025  1.00  0.00     0.001 A 
ATOM      8  CH2 TRP A   1      13.258  29.618  14.947  1.00  0.00     0.002 A 
ATOM      9  CZ2 TRP A   1      13.210  30.622  15.930  1.00  0.00     0.030 A 
ATOM     10  HE1 TRP A   1      13.761  32.841  17.603  1.00  0.00     0.165 HD
ENDROOT
BRANCH   1  11
ATOM     11  CB  TRP A   1      17.428  32.877  14.663  1.00  0.00     0.087 C 
BRANCH  11  12
ATOM     12  CA  TRP A   1      17.275  33.423  13.225  1.00  0.00     0.318 C 
BRANCH  12  13
ATOM     13  C   TRP A   1      17.267  34.929  13.253  1.00  0.00     0.174 C 
ATOM     14  O   TRP A   1      17.249  35.582  12.176  1.00  0.00    -0.648 OA
BRANCH  13  15
ATOM     15  OXT TRP A   1      17.327  35.617  14.462  1.00  0.00    -0.775 OA
ATOM     16  HXT TRP A   1      16.699  36.388  14.662  1.00  0.00     0.167 HD
ENDBRANCH  13  15
ENDBRANCH  12  13
BRANCH  12  17
ATOM     17  N   TRP A   1      18.354  32.956  12.347  1.00  0.00     0.093 N 
ATOM     18  H1  TRP A   1      18.880  33.776  11.966  1.00  0.00     0.314 HD
ATOM     19  H2  TRP A   1      19.030  32.386  12.901  1.00  0.00     0.314 HD
ENDBRANCH  12  17
ENDBRANCH  11  12
ENDBRANCH   1  11
TORSDOF 5
ENDMDL
MODEL 10
REMARK VINA RESULT:      -6.2      9.419     11.516
REMARK  5 active torsions:
REMARK  status: ('A' for Active; 'I' for Inactive)
REMARK    1  A    between atoms: C_2  and  CA_4 
REMARK    2  A    between atoms: C_2  and  OXT_3 
REMARK    3  A    between atoms: CA_4  and  CB_6 
REMARK    4  A    between atoms: CA_4  and  N_5 
REMARK    5  A    between atoms: CB_6  and  CG_7 
ROOT
ATOM      1  CG  TRP A   1      13.947  29.211  14.285  1.00  0.00    -0.028 A 
ATOM      2  CD1 TRP A   1      15.083  29.386  13.490  1.00  0.00     0.096 A 
ATOM      3  NE1 TRP A   1      15.744  30.510  13.848  1.00  0.00    -0.365 N 
ATOM      4  CE2 TRP A   1      15.048  31.043  14.865  1.00  0.00     0.042 A 
ATOM      5  CD2 TRP A   1      13.950  30.278  15.164  1.00  0.00    -0.002 A 
ATOM      6  CE3 TRP A   1      13.079  30.618  16.199  1.00  0.00     0.014 A 
ATOM      7  CZ3 TRP A   1      13.356  31.785  16.934  1.00  0.00     0.001 A 
ATOM      8  CH2 TRP A   1      14.485  32.575  16.625  1.00  0.00     0.002 A 
ATOM      9  CZ2 TRP A   1      15.349  32.204  15.579  1.00  0.00     0.030 A 
ATOM     10  HE1 TRP A   1      16.626  30.878  13.426  1.00  0.00     0.165 HD
ENDROOT
BRANCH   1  11
ATOM     11  CB  TRP A   1      12.947  28.079  14.276  1.00  0.00     0.087 C 
BRANCH  11  12
ATOM     12  CA  TRP A   1      12.135  27.948  12.968  1.00  0.00     0.318 C 
BRANCH  12  13
ATOM     13  C   TRP A   1      11.903  26.492  12.659  1.00  0.00     0.174 C 
ATOM     14  O   TRP A   1      12.655  25.889  11.847  1.00  0.00    -0.648 OA
BRANCH  13  15
ATOM     15  OXT TRP A   1      10.831  25.808  13.225  1.00  0.00    -0.775 OA
ATOM     16  HXT TRP A   1      10.270  25.162  12.681  1.00  0.00     0.167 HD
ENDBRANCH  13  15
ENDBRANCH  12  13
BRANCH  12  17
ATOM     17  N   TRP A   1      10.844  28.641  13.055  1.00  0.00     0.093 N 
ATOM     18  H1  TRP A   1      10.744  29.305  12.253  1.00  0.00     0.314 HD
ATOM     19  H2  TRP A   1      10.070  27.944  12.977  1.00  0.00     0.314 HD
ENDBRANCH  12  17
ENDBRANCH  11  12
ENDBRANCH   1  11
TORSDOF 5
ENDMDL
MODEL 11
REMARK VINA RESULT:      -6.1      8.635     10.892
REMARK  5 active torsions:
REMARK  status: ('A' for Active; 'I' for Inactive)
REMARK    1  A    between atoms: C_2  and  CA_4 
REMARK    2  A    between atoms: C_2  and  OXT_3 
REMARK    3  A    between atoms: CA_4  and  CB_6 
REMARK    4  A    between atoms: CA_4  and  N_5 
REMARK    5  A    between atoms: CB_6  and  CG_7 
ROOT
ATOM      1  CG  TRP A   1      14.106  30.055  14.315  1.00  0.00    -0.028 A 
ATOM      2  CD1 TRP A   1      15.141  30.419  13.450  1.00  0.00     0.096 A 
ATOM      3  NE1 TRP A   1      15.900  31.394  14.000  1.00  0.00    -0.365 N 
ATOM      4  CE2 TRP A   1      15.367  31.644  15.206  1.00  0.00     0.042 A 
ATOM      5  CD2 TRP A   1      14.276  30.845  15.437  1.00  0.00    -0.002 A 
ATOM      6  CE3 TRP A   1      13.561  30.908  16.633  1.00  0.00     0.014 A 
ATOM      7  CZ3 TRP A   1      13.990  31.829  17.607  1.00  0.00     0.001 A 
ATOM      8  CH2 TRP A   1      15.110  32.654  17.368  1.00  0.00     0.002 A 
ATOM      9  CZ2 TRP A   1      15.815  32.564  16.154  1.00  0.00     0.030 A 
ATOM     10  HE1 TRP A   1      16.740  31.847  13.575  1.00  0.00     0.165 HD
ENDROOT
BRANCH   1  11
ATOM     11  CB  TRP A   1      13.056  28.985  14.143  1.00  0.00     0.087 C 
BRANCH  11  12
ATOM     12  CA  TRP A   1      13.616  27.570  13.873  1.00  0.00     0.318 C 
BRANCH  12  13
ATOM     13  C   TRP A   1      12.689  26.825  12.948  1.00  0.00     0.174 C 
ATOM     14  O   TRP A   1      11.478  26.667  13.258  1.00  0.00    -0.648 OA
BRANCH  13  15
ATOM     15  OXT TRP A   1      13.166  26.260  11.768  1.00  0.00    -0.775 OA
ATOM     16  HXT TRP A   1      12.563  25.713  11.164  1.00  0.00     0.167 HD
ENDBRANCH  13  15
ENDBRANCH  12  13
BRANCH  12  17
ATOM     17  N   TRP A   1      14.960  27.618  13.284  1.00  0.00     0.093 N 
ATOM     18  H1  TRP A   1      15.251  28.613  13.148  1.00  0.00     0.314 HD
ATOM     19  H2  TRP A   1      15.643  27.184  13.944  1.00  0.00     0.314 HD
ENDBRANCH  12  17
ENDBRANCH  11  12
ENDBRANCH   1  11
TORSDOF 5
ENDMDL
MODEL 12
REMARK VINA RESULT:      -6.0      8.550      9.942
REMARK  5 active torsions:
REMARK  status: ('A' for Active; 'I' for Inactive)
REMARK    1  A    between atoms: C_2  and  CA_4 
REMARK    2  A    between atoms: C_2  and  OXT_3 
REMARK    3  A    between atoms: CA_4  and  CB_6 
REMARK    4  A    between atoms: CA_4  and  N_5 
REMARK    5  A    between atoms: CB_6  and  CG_7 
ROOT
ATOM      1  CG  TRP A   1      16.181  31.568  14.619  1.00  0.00    -0.028 A 
ATOM      2  CD1 TRP A   1      15.898  30.777  13.503  1.00  0.00     0.096 A 
ATOM      3  NE1 TRP A   1      14.679  30.205  13.623  1.00  0.00    -0.365 N 
ATOM      4  CE2 TRP A   1      14.181  30.631  14.796  1.00  0.00     0.042 A 
ATOM      5  CD2 TRP A   1      15.065  31.468  15.428  1.00  0.00    -0.002 A 
ATOM      6  CE3 TRP A   1      14.766  32.055  16.658  1.00  0.00     0.014 A 
ATOM      7  CZ3 TRP A   1      13.521  31.758  17.243  1.00  0.00     0.001 A 
ATOM      8  CH2 TRP A   1      12.613  30.894  16.592  1.00  0.00     0.002 A 
ATOM      9  CZ2 TRP A   1      12.940  30.321  15.351  1.00  0.00     0.030 A 
ATOM     10  HE1 TRP A   1      14.214  29.571  12.934  1.00  0.00     0.165 HD
ENDROOT
BRANCH   1  11
ATOM     11  CB  TRP A   1      17.393  32.427  14.891  1.00  0.00     0.087 C 
BRANCH  11  12
ATOM     12  CA  TRP A   1      17.509  33.680  13.994  1.00  0.00     0.318 C 
BRANCH  12  13
ATOM     13  C   TRP A   1      17.105  34.903  14.775  1.00  0.00     0.174 C 
ATOM     14  O   TRP A   1      17.140  36.041  14.234  1.00  0.00    -0.648 OA
BRANCH  13  15
ATOM     15  OXT TRP A   1      16.735  34.800  16.114  1.00  0.00    -0.775 OA
ATOM     16  HXT TRP A   1      15.828  35.118  16.436  1.00  0.00     0.167 HD
ENDBRANCH  13  15
ENDBRANCH  12  13
BRANCH  12  17
ATOM     17  N   TRP A   1      18.871  33.857  13.477  1.00  0.00     0.093 N 
ATOM     18  H1  TRP A   1      19.494  33.107  13.856  1.00  0.00     0.314 HD
ATOM     19  H2  TRP A   1      18.864  33.757  12.438  1.00  0.00     0.314 HD
ENDBRANCH  12  17
ENDBRANCH  11  12
ENDBRANCH   1  11
TORSDOF 5
ENDMDL
MODEL 13
REMARK VINA RESULT:      -5.9      5.670      9.101
REMARK  5 active torsions:
REMARK  status: ('A' for Active; 'I' for Inactive)
REMARK    1  A    between atoms: C_2  and  CA_4 
REMARK    2  A    between atoms: C_2  and  OXT_3 
REMARK    3  A    between atoms: CA_4  and  CB_6 
REMARK    4  A    between atoms: CA_4  and  N_5 
REMARK    5  A    between atoms: CB_6  and  CG_7 
ROOT
ATOM      1  CG  TRP A   1      14.557  31.852  16.215  1.00  0.00    -0.028 A 
ATOM      2  CD1 TRP A   1      14.179  30.708  15.508  1.00  0.00     0.096 A 
ATOM      3  NE1 TRP A   1      14.895  30.597  14.366  1.00  0.00    -0.365 N 
ATOM      4  CE2 TRP A   1      15.729  31.649  14.346  1.00  0.00     0.042 A 
ATOM      5  CD2 TRP A   1      15.557  32.433  15.458  1.00  0.00    -0.002 A 
ATOM      6  CE3 TRP A   1      16.323  33.579  15.673  1.00  0.00     0.014 A 
ATOM      7  CZ3 TRP A   1      17.286  33.917  14.704  1.00  0.00     0.001 A 
ATOM      8  CH2 TRP A   1      17.461  33.111  13.557  1.00  0.00     0.002 A 
ATOM      9  CZ2 TRP A   1      16.677  31.959  13.370  1.00  0.00     0.030 A 
ATOM     10  HE1 TRP A   1      14.822  29.837  13.653  1.00  0.00     0.165 HD
ENDROOT
BRANCH   1  11
ATOM     11  CB  TRP A   1      14.067  32.345  17.556  1.00  0.00     0.087 C 
BRANCH  11  12
ATOM     12  CA  TRP A   1      15.047  32.107  18.727  1.00  0.00     0.318 C 
BRANCH  12  13
ATOM     13  C   TRP A   1      15.418  33.426  19.354  1.00  0.00     0.174 C 
ATOM     14  O   TRP A   1      15.733  33.481  20.573  1.00  0.00    -0.648 OA
BRANCH  13  15
ATOM     15  OXT TRP A   1      15.371  34.603  18.612  1.00  0.00    -0.775 OA
ATOM     16  HXT TRP A   1      15.847  35.442  18.923  1.00  0.00     0.167 HD
ENDBRANCH  13  15
ENDBRANCH  12  13
BRANCH  12  17
ATOM     17  N   TRP A   1      14.473  31.223  19.748  1.00  0.00     0.093 N 
ATOM     18  H1  TRP A   1      13.941  30.449  19.288  1.00  0.00     0.314 HD
ATOM     19  H2  TRP A   1      15.243  30.784  20.299  1.00  0.00     0.314 HD
ENDBRANCH  12  17
ENDBRANCH  11  12
ENDBRANCH   1  11
TORSDOF 5
ENDMDL
MODEL 14
REMARK VINA RESULT:      -5.9      8.073     10.263
REMARK  5 active torsions:
REMARK  status: ('A' for Active; 'I' for Inactive)
REMARK    1  A    between atoms: C_2  and  CA_4 
REMARK    2  A    between atoms: C_2  and  OXT_3 
REMARK    3  A    between atoms: CA_4  and  CB_6 
REMARK    4  A    between atoms: CA_4  and  N_5 
REMARK    5  A    between atoms: CB_6  and  CG_7 
ROOT
ATOM      1  CG  TRP A   1      14.042  30.479  15.124  1.00  0.00    -0.028 A 
ATOM      2  CD1 TRP A   1      13.101  30.369  16.151  1.00  0.00     0.096 A 
ATOM      3  NE1 TRP A   1      13.289  31.340  17.073  1.00  0.00    -0.365 N 
ATOM      4  CE2 TRP A   1      14.329  32.070  16.639  1.00  0.00     0.042 A 
ATOM      5  CD2 TRP A   1      14.811  31.580  15.452  1.00  0.00    -0.002 A 
ATOM      6  CE3 TRP A   1      15.882  32.182  14.791  1.00  0.00     0.014 A 
ATOM      7  CZ3 TRP A   1      16.467  33.317  15.385  1.00  0.00     0.001 A 
ATOM      8  CH2 TRP A   1      15.972  33.819  16.609  1.00  0.00     0.002 A 
ATOM      9  CZ2 TRP A   1      14.887  33.194  17.249  1.00  0.00     0.030 A 
ATOM     10  HE1 TRP A   1      12.727  31.496  17.940  1.00  0.00     0.165 HD
ENDROOT
BRANCH   1  11
ATOM     11  CB  TRP A   1      14.180  29.650  13.869  1.00  0.00     0.087 C 
BRANCH  11  12
ATOM     12  CA  TRP A   1      13.943  28.136  14.068  1.00  0.00     0.318 C 
BRANCH  12  13
ATOM     13  C   TRP A   1      12.550  27.778  13.617  1.00  0.00     0.174 C 
ATOM     14  O   TRP A   1      12.244  26.573  13.407  1.00  0.00    -0.648 OA
BRANCH  13  15
ATOM     15  OXT TRP A   1      11.603  28.770  13.381  1.00  0.00    -0.775 OA
ATOM     16  HXT TRP A   1      11.850  29.634  12.912  1.00  0.00     0.167 HD
ENDBRANCH  13  15
ENDBRANCH  12  13
BRANCH  12  17
ATOM     17  N   TRP A   1      14.920  27.329  13.330  1.00  0.00     0.093 N 
ATOM     18  H1  TRP A   1      15.833  27.836  13.279  1.00  0.00     0.314 HD
ATOM     19  H2  TRP A   1      15.091  26.436  13.843  1.00  0.00     0.314 HD
ENDBRANCH  12  17
ENDBRANCH  11  12
ENDBRANCH   1  11
TORSDOF 5
ENDMDL
MODEL 15
REMARK VINA RESULT:      -5.8      9.324     11.279
REMARK  5 active torsions:
REMARK  status: ('A' for Active; 'I' for Inactive)
REMARK    1  A    between atoms: C_2  and  CA_4 
REMARK    2  A    between atoms: C_2  and  OXT_3 
REMARK    3  A    between atoms: CA_4  and  CB_6 
REMARK    4  A    between atoms: CA_4  and  N_5 
REMARK    5  A    between atoms: CB_6  and  CG_7 
ROOT
ATOM      1  CG  TRP A   1      14.677  30.790  15.134  1.00  0.00    -0.028 A 
ATOM      2  CD1 TRP A   1      13.375  31.035  15.578  1.00  0.00     0.096 A 
ATOM      3  NE1 TRP A   1      12.548  30.034  15.200  1.00  0.00    -0.365 N 
ATOM      4  CE2 TRP A   1      13.310  29.152  14.533  1.00  0.00     0.042 A 
ATOM      5  CD2 TRP A   1      14.614  29.576  14.477  1.00  0.00    -0.002 A 
ATOM      6  CE3 TRP A   1      15.604  28.818  13.849  1.00  0.00     0.014 A 
ATOM      7  CZ3 TRP A   1      15.224  27.597  13.263  1.00  0.00     0.001 A 
ATOM      8  CH2 TRP A   1      13.881  27.164  13.318  1.00  0.00     0.002 A 
ATOM      9  CZ2 TRP A   1      12.906  27.945  13.963  1.00  0.00     0.030 A 
ATOM     10  HE1 TRP A   1      11.525  29.957  15.402  1.00  0.00     0.165 HD
ENDROOT
BRANCH   1  11
ATOM     11  CB  TRP A   1      15.927  31.603  15.365  1.00  0.00     0.087 C 
BRANCH  11  12
ATOM     12  CA  TRP A   1      16.153  32.742  14.345  1.00  0.00     0.318 C 
BRANCH  12  13
ATOM     13  C   TRP A   1      17.402  33.504  14.702  1.00  0.00     0.174 C 
ATOM     14  O   TRP A   1      17.354  34.441  15.543  1.00  0.00    -0.648 OA
BRANCH  13  15
ATOM     15  OXT TRP A   1      18.612  33.216  14.077  1.00  0.00    -0.775 OA
ATOM     16  HXT TRP A   1      18.644  32.724  13.191  1.00  0.00     0.167 HD
ENDBRANCH  13  15
ENDBRANCH  12  13
BRANCH  12  17
ATOM     17  N   TRP A   1      16.266  32.232  12.973  1.00  0.00     0.093 N 
ATOM     18  H1  TRP A   1      17.257  31.961  12.777  1.00  0.00     0.314 HD
ATOM     19  H2  TRP A   1      15.686  31.369  12.875  1.00  0.00     0.314 HD
ENDBRANCH  12  17
ENDBRANCH  11  12
ENDBRANCH   1  11
TORSDOF 5
ENDMDL
MODEL 16
REMARK VINA RESULT:      -5.7      6.817     10.634
REMARK  5 active torsions:
REMARK  status: ('A' for Active; 'I' for Inactive)
REMARK    1  A    between atoms: C_2  and  CA_4 
REMARK    2  A    between atoms: C_2  and  OXT_3 
REMARK    3  A    between atoms: CA_4  and  CB_6 
REMARK    4  A    between atoms: CA_4  and  N_5 
REMARK    5  A    between atoms: CB_6  and  CG_7 
ROOT
ATOM      1  CG  TRP A   1      14.212  31.039  15.434  1.00  0.00    -0.028 A 
ATOM      2  CD1 TRP A   1      12.847  31.004  15.732  1.00  0.00     0.096 A 
ATOM      3  NE1 TRP A   1      12.279  29.889  15.220  1.00  0.00    -0.365 N 
ATOM      4  CE2 TRP A   1      13.266  29.212  14.612  1.00  0.00     0.042 A 
ATOM      5  CD2 TRP A   1      14.460  29.879  14.725  1.00  0.00    -0.002 A 
ATOM      6  CE3 TRP A   1      15.640  29.365  14.188  1.00  0.00     0.014 A 
ATOM      7  CZ3 TRP A   1      15.572  28.132  13.512  1.00  0.00     0.001 A 
ATOM      8  CH2 TRP A   1      14.343  27.448  13.393  1.00  0.00     0.002 A 
ATOM      9  CZ2 TRP A   1      13.170  27.988  13.950  1.00  0.00     0.030 A 
ATOM     10  HE1 TRP A   1      11.275  29.606  15.298  1.00  0.00     0.165 HD
ENDROOT
BRANCH   1  11
ATOM     11  CB  TRP A   1      15.246  32.061  15.842  1.00  0.00     0.087 C 
BRANCH  11  12
ATOM     12  CA  TRP A   1      15.195  32.470  17.332  1.00  0.00     0.318 C 
BRANCH  12  13
ATOM     13  C   TRP A   1      15.384  33.959  17.455  1.00  0.00     0.174 C 
ATOM     14  O   TRP A   1      15.646  34.651  16.435  1.00  0.00    -0.648 OA
BRANCH  13  15
ATOM     15  OXT TRP A   1      15.320  34.582  18.699  1.00  0.00    -0.775 OA
ATOM     16  HXT TRP A   1      16.158  34.782  19.233  1.00  0.00     0.167 HD
ENDBRANCH  13  15
ENDBRANCH  12  13
BRANCH  12  17
ATOM     17  N   TRP A   1      13.926  32.083  17.960  1.00  0.00     0.093 N 
ATOM     18  H1  TRP A   1      13.395  31.447  17.323  1.00  0.00     0.314 HD
ATOM     19  H2  TRP A   1      14.122  31.550  18.836  1.00  0.00     0.314 HD
ENDBRANCH  12  17
ENDBRANCH  11  12
ENDBRANCH   1  11
TORSDOF 5
ENDMDL
MODEL 17
REMARK VINA RESULT:      -5.6      5.801      7.773
REMARK  5 active torsions:
REMARK  status: ('A' for Active; 'I' for Inactive)
REMARK    1  A    between atoms: C_2  and  CA_4 
REMARK    2  A    between atoms: C_2  and  OXT_3 
REMARK    3  A    between atoms: CA_4  and  CB_6 
REMARK    4  A    between atoms: CA_4  and  N_5 
REMARK    5  A    between atoms: CB_6  and  CG_7 
ROOT
ATOM      1  CG  TRP A   1      14.829  32.396  16.497  1.00  0.00    -0.028 A 
ATOM      2  CD1 TRP A   1      15.380  33.612  16.086  1.00  0.00     0.096 A 
ATOM      3  NE1 TRP A   1      15.729  34.361  17.156  1.00  0.00    -0.365 N 
ATOM      4  CE2 TRP A   1      15.417  33.631  18.239  1.00  0.00     0.042 A 
ATOM      5  CD2 TRP A   1      14.871  32.426  17.878  1.00  0.00    -0.002 A 
ATOM      6  CE3 TRP A   1      14.481  31.483  18.829  1.00  0.00     0.014 A 
ATOM      7  CZ3 TRP A   1      14.659  31.807  20.187  1.00  0.00     0.001 A 
ATOM      8  CH2 TRP A   1      15.217  33.050  20.559  1.00  0.00     0.002 A 
ATOM      9  CZ2 TRP A   1      15.606  33.978  19.577  1.00  0.00     0.030 A 
ATOM     10  HE1 TRP A   1      16.167  35.309  17.140  1.00  0.00     0.165 HD
ENDROOT
BRANCH   1  11
ATOM     11  CB  TRP A   1      14.350  31.237  15.654  1.00  0.00     0.087 C 
BRANCH  11  12
ATOM     12  CA  TRP A   1      15.417  30.650  14.702  1.00  0.00     0.318 C 
BRANCH  12  13
ATOM     13  C   TRP A   1      14.957  29.309  14.192  1.00  0.00     0.174 C 
ATOM     14  O   TRP A   1      15.782  28.366  14.055  1.00  0.00    -0.648 OA
BRANCH  13  15
ATOM     15  OXT TRP A   1      13.630  29.107  13.821  1.00  0.00    -0.775 OA
ATOM     16  HXT TRP A   1      13.246  28.174  13.722  1.00  0.00     0.167 HD
ENDBRANCH  13  15
ENDBRANCH  12  13
BRANCH  12  17
ATOM     17  N   TRP A   1      15.684  31.540  13.567  1.00  0.00     0.093 N 
ATOM     18  H1  TRP A   1      15.701  32.534  13.892  1.00  0.00     0.314 HD
ATOM     19  H2  TRP A   1      16.628  31.327  13.175  1.00  0.00     0.314 HD
ENDBRANCH  12  17
ENDBRANCH  11  12
ENDBRANCH   1  11
TORSDOF 5
ENDMDL
