MODEL 1
REMARK VINA RESULT:      -5.6      0.000      0.000
REMARK  1 active torsions:
REMARK  status: ('A' for Active; 'I' for Inactive)
REMARK    1  A    between atoms: N_1  and  C_2 
ROOT
HETATM    1  C   LIG     1      16.008  37.698  22.948  1.00  0.00     0.155 A 
HETATM    2  N   LIG     1      15.906  36.690  22.031  1.00  0.00    -0.222 NA
HETATM    3  C   LIG     1      16.449  35.451  22.265  1.00  0.00     0.237 A 
HETATM    4  N   LIG     1      17.111  35.194  23.433  1.00  0.00    -0.222 NA
HETATM    5  C   LIG     1      17.210  36.196  24.340  1.00  0.00     0.162 A 
HETATM    6  C   LIG     1      16.683  37.422  24.132  1.00  0.00     0.149 A 
HETATM    7  N   LIG     1      16.925  38.221  25.188  1.00  0.00    -0.236 NA
HETATM    8  C   LIG     1      17.619  37.402  26.025  1.00  0.00     0.209 A 
HETATM    9  N   LIG     1      17.809  36.152  25.532  1.00  0.00    -0.333 N 
HETATM   10  H   LIG     1      18.306  35.350  25.980  1.00  0.00     0.168 HD
ENDROOT
BRANCH   1  11
HETATM   11  N   LIG     1      15.436  38.979  22.688  1.00  0.00    -0.382 N 
HETATM   12  H   LIG     1      15.163  39.602  23.479  1.00  0.00     0.157 HD
HETATM   13  H   LIG     1      15.281  39.309  21.709  1.00  0.00     0.157 HD
ENDBRANCH   1  11
TORSDOF 1
ENDMDL
MODEL 2
REMARK VINA RESULT:      -5.5      1.088      2.473
REMARK  1 active torsions:
REMARK  status: ('A' for Active; 'I' for Inactive)
REMARK    1  A    between atoms: N_1  and  C_2 
ROOT
HETATM    1  C   LIG     1      16.905  36.307  22.972  1.00  0.00     0.155 A 
HETATM    2  N   LIG     1      16.534  37.378  22.207  1.00  0.00    -0.222 NA
HETATM    3  C   LIG     1      16.480  38.646  22.730  1.00  0.00     0.237 A 
HETATM    4  N   LIG     1      16.800  38.870  24.040  1.00  0.00    -0.222 NA
HETATM    5  C   LIG     1      17.167  37.806  24.794  1.00  0.00     0.162 A 
HETATM    6  C   LIG     1      17.229  36.549  24.302  1.00  0.00     0.149 A 
HETATM    7  N   LIG     1      17.621  35.689  25.260  1.00  0.00    -0.236 NA
HETATM    8  C   LIG     1      17.786  36.503  26.338  1.00  0.00     0.209 A 
HETATM    9  N   LIG     1      17.516  37.809  26.083  1.00  0.00    -0.333 N 
HETATM   10  H   LIG     1      17.569  38.619  26.739  1.00  0.00     0.168 HD
ENDROOT
BRANCH   1  11
HETATM   11  N   LIG     1      16.957  34.997  22.410  1.00  0.00    -0.382 N 
HETATM   12  H   LIG     1      17.553  34.261  22.849  1.00  0.00     0.157 HD
HETATM   13  H   LIG     1      16.404  34.755  21.557  1.00  0.00     0.157 HD
ENDBRANCH   1  11
TORSDOF 1
ENDMDL
MODEL 3
REMARK VINA RESULT:      -5.5      1.188      3.078
REMARK  1 active torsions:
REMARK  status: ('A' for Active; 'I' for Inactive)
REMARK    1  A    between atoms: N_1  and  C_2 
ROOT
HETATM    1  C   LIG     1      17.380  37.476  25.367  1.00  0.00     0.155 A 
HETATM    2  N   LIG     1      17.759  36.609  26.352  1.00  0.00    -0.222 NA
HETATM    3  C   LIG     1      17.816  35.255  26.132  1.00  0.00     0.237 A 
HETATM    4  N   LIG     1      17.489  34.738  24.909  1.00  0.00    -0.222 NA
HETATM    5  C   LIG     1      17.113  35.601  23.935  1.00  0.00     0.162 A 
HETATM    6  C   LIG     1      17.052  36.937  24.128  1.00  0.00     0.149 A 
HETATM    7  N   LIG     1      16.652  37.556  23.002  1.00  0.00    -0.236 NA
HETATM    8  C   LIG     1      16.482  36.517  22.138  1.00  0.00     0.209 A 
HETATM    9  N   LIG     1      16.759  35.304  22.683  1.00  0.00    -0.333 N 
HETATM   10  H   LIG     1      16.706  34.365  22.229  1.00  0.00     0.168 HD
ENDROOT
BRANCH   1  11
HETATM   11  N   LIG     1      17.329  38.880  25.614  1.00  0.00    -0.382 N 
HETATM   12  H   LIG     1      18.168  39.379  25.982  1.00  0.00     0.157 HD
HETATM   13  H   LIG     1      16.457  39.427  25.435  1.00  0.00     0.157 HD
ENDBRANCH   1  11
TORSDOF 1
ENDMDL
MODEL 4
REMARK VINA RESULT:      -5.3      2.692      4.010
REMARK  1 active torsions:
REMARK  status: ('A' for Active; 'I' for Inactive)
REMARK    1  A    between atoms: N_1  and  C_2 
ROOT
HETATM    1  C   LIG     1      17.117  36.658  21.346  1.00  0.00     0.155 A 
HETATM    2  N   LIG     1      16.398  36.630  22.508  1.00  0.00    -0.222 NA
HETATM    3  C   LIG     1      16.500  37.635  23.437  1.00  0.00     0.237 A 
HETATM    4  N   LIG     1      17.333  38.697  23.220  1.00  0.00    -0.222 NA
HETATM    5  C   LIG     1      18.044  38.721  22.068  1.00  0.00     0.162 A 
HETATM    6  C   LIG     1      17.959  37.745  21.138  1.00  0.00     0.149 A 
HETATM    7  N   LIG     1      18.767  38.017  20.096  1.00  0.00    -0.236 NA
HETATM    8  C   LIG     1      19.330  39.202  20.461  1.00  0.00     0.209 A 
HETATM    9  N   LIG     1      18.905  39.659  21.667  1.00  0.00    -0.333 N 
HETATM   10  H   LIG     1      19.186  40.536  22.160  1.00  0.00     0.168 HD
ENDROOT
BRANCH   1  11
HETATM   11  N   LIG     1      16.996  35.605  20.391  1.00  0.00    -0.382 N 
HETATM   12  H   LIG     1      16.255  35.644  19.657  1.00  0.00     0.157 HD
HETATM   13  H   LIG     1      17.641  34.784  20.411  1.00  0.00     0.157 HD
ENDBRANCH   1  11
TORSDOF 1
ENDMDL
MODEL 5
REMARK VINA RESULT:      -5.2      2.784      3.707
REMARK  1 active torsions:
REMARK  status: ('A' for Active; 'I' for Inactive)
REMARK    1  A    between atoms: N_1  and  C_2 
ROOT
HETATM    1  C   LIG     1      16.930  37.702  22.395  1.00  0.00     0.155 A 
HETATM    2  N   LIG     1      16.401  36.463  22.164  1.00  0.00    -0.222 NA
HETATM    3  C   LIG     1      16.806  35.698  21.099  1.00  0.00     0.237 A 
HETATM    4  N   LIG     1      17.759  36.163  20.235  1.00  0.00    -0.222 NA
HETATM    5  C   LIG     1      18.280  37.392  20.467  1.00  0.00     0.162 A 
HETATM    6  C   LIG     1      17.898  38.162  21.509  1.00  0.00     0.149 A 
HETATM    7  N   LIG     1      18.572  39.326  21.504  1.00  0.00    -0.236 NA
HETATM    8  C   LIG     1      19.369  39.201  20.407  1.00  0.00     0.209 A 
HETATM    9  N   LIG     1      19.213  38.023  19.750  1.00  0.00    -0.333 N 
HETATM   10  H   LIG     1      19.705  37.693  18.890  1.00  0.00     0.168 HD
ENDROOT
BRANCH   1  11
HETATM   11  N   LIG     1      16.497  38.482  23.508  1.00  0.00    -0.382 N 
HETATM   12  H   LIG     1      17.194  38.987  24.098  1.00  0.00     0.157 HD
HETATM   13  H   LIG     1      15.484  38.558  23.750  1.00  0.00     0.157 HD
ENDBRANCH   1  11
TORSDOF 1
ENDMDL
MODEL 6
REMARK VINA RESULT:      -5.2      6.122      7.794
REMARK  1 active torsions:
REMARK  status: ('A' for Active; 'I' for Inactive)
REMARK    1  A    between atoms: N_1  and  C_2 
ROOT
HETATM    1  C   LIG     1      15.307  33.166  16.811  1.00  0.00     0.155 A 
HETATM    2  N   LIG     1      14.723  32.345  15.887  1.00  0.00    -0.222 NA
HETATM    3  C   LIG     1      13.989  31.249  16.267  1.00  0.00     0.237 A 
HETATM    4  N   LIG     1      13.825  30.950  17.591  1.00  0.00    -0.222 NA
HETATM    5  C   LIG     1      14.405  31.766  18.502  1.00  0.00     0.162 A 
HETATM    6  C   LIG     1      15.130  32.851  18.153  1.00  0.00     0.149 A 
HETATM    7  N   LIG     1      15.589  33.481  19.250  1.00  0.00    -0.236 NA
HETATM    8  C   LIG     1      15.097  32.713  20.260  1.00  0.00     0.209 A 
HETATM    9  N   LIG     1      14.365  31.652  19.832  1.00  0.00    -0.333 N 
HETATM   10  H   LIG     1      13.887  30.923  20.407  1.00  0.00     0.168 HD
ENDROOT
BRANCH   1  11
HETATM   11  N   LIG     1      16.064  34.303  16.397  1.00  0.00    -0.382 N 
HETATM   12  H   LIG     1      15.970  34.670  15.425  1.00  0.00     0.157 HD
HETATM   13  H   LIG     1      16.722  34.779  17.054  1.00  0.00     0.157 HD
ENDBRANCH   1  11
TORSDOF 1
ENDMDL
MODEL 7
REMARK VINA RESULT:      -5.1      1.264      3.015
REMARK  1 active torsions:
REMARK  status: ('A' for Active; 'I' for Inactive)
REMARK    1  A    between atoms: N_1  and  C_2 
ROOT
HETATM    1  C   LIG     1      16.987  35.501  23.115  1.00  0.00     0.155 A 
HETATM    2  N   LIG     1      17.256  34.852  24.287  1.00  0.00    -0.222 NA
HETATM    3  C   LIG     1      17.459  35.541  25.457  1.00  0.00     0.237 A 
HETATM    4  N   LIG     1      17.395  36.907  25.476  1.00  0.00    -0.222 NA
HETATM    5  C   LIG     1      17.128  37.546  24.312  1.00  0.00     0.162 A 
HETATM    6  C   LIG     1      16.924  36.889  23.149  1.00  0.00     0.149 A 
HETATM    7  N   LIG     1      16.679  37.762  22.155  1.00  0.00    -0.236 NA
HETATM    8  C   LIG     1      16.749  38.964  22.792  1.00  0.00     0.209 A 
HETATM    9  N   LIG     1      17.023  38.863  24.118  1.00  0.00    -0.333 N 
HETATM   10  H   LIG     1      17.126  39.632  24.816  1.00  0.00     0.168 HD
ENDROOT
BRANCH   1  11
HETATM   11  N   LIG     1      16.777  34.767  21.909  1.00  0.00    -0.382 N 
HETATM   12  H   LIG     1      17.216  33.829  21.784  1.00  0.00     0.157 HD
HETATM   13  H   LIG     1      16.188  35.155  21.139  1.00  0.00     0.157 HD
ENDBRANCH   1  11
TORSDOF 1
ENDMDL
MODEL 8
REMARK VINA RESULT:      -5.1      8.856     10.811
REMARK  1 active torsions:
REMARK  status: ('A' for Active; 'I' for Inactive)
REMARK    1  A    between atoms: N_1  and  C_2 
ROOT
HETATM    1  C   LIG     1      14.710  32.042  16.524  1.00  0.00     0.155 A 
HETATM    2  N   LIG     1      15.915  32.664  16.356  1.00  0.00    -0.222 NA
HETATM    3  C   LIG     1      16.738  32.358  15.300  1.00  0.00     0.237 A 
HETATM    4  N   LIG     1      16.366  31.414  14.384  1.00  0.00    -0.222 NA
HETATM    5  C   LIG     1      15.171  30.800  14.554  1.00  0.00     0.162 A 
HETATM    6  C   LIG     1      14.344  31.085  15.584  1.00  0.00     0.149 A 
HETATM    7  N   LIG     1      13.229  30.335  15.513  1.00  0.00    -0.236 NA
HETATM    8  C   LIG     1      13.443  29.595  14.390  1.00  0.00     0.209 A 
HETATM    9  N   LIG     1      14.626  29.859  13.779  1.00  0.00    -0.333 N 
HETATM   10  H   LIG     1      15.015  29.428  12.911  1.00  0.00     0.168 HD
ENDROOT
BRANCH   1  11
HETATM   11  N   LIG     1      13.868  32.375  17.627  1.00  0.00    -0.382 N 
HETATM   12  H   LIG     1      12.950  31.894  17.750  1.00  0.00     0.157 HD
HETATM   13  H   LIG     1      14.154  33.100  18.322  1.00  0.00     0.157 HD
ENDBRANCH   1  11
TORSDOF 1
ENDMDL
MODEL 9
REMARK VINA RESULT:      -5.1      2.490      3.903
REMARK  1 active torsions:
REMARK  status: ('A' for Active; 'I' for Inactive)
REMARK    1  A    between atoms: N_1  and  C_2 
ROOT
HETATM    1  C   LIG     1      17.481  38.551  22.578  1.00  0.00     0.155 A 
HETATM    2  N   LIG     1      18.371  39.438  22.039  1.00  0.00    -0.222 NA
HETATM    3  C   LIG     1      19.025  39.171  20.863  1.00  0.00     0.237 A 
HETATM    4  N   LIG     1      18.800  37.998  20.196  1.00  0.00    -0.222 NA
HETATM    5  C   LIG     1      17.918  37.122  20.733  1.00  0.00     0.162 A 
HETATM    6  C   LIG     1      17.262  37.364  21.889  1.00  0.00     0.149 A 
HETATM    7  N   LIG     1      16.451  36.333  22.192  1.00  0.00    -0.236 NA
HETATM    8  C   LIG     1      16.664  35.475  21.156  1.00  0.00     0.209 A 
HETATM    9  N   LIG     1      17.559  35.932  20.244  1.00  0.00    -0.333 N 
HETATM   10  H   LIG     1      17.888  35.464  19.371  1.00  0.00     0.168 HD
ENDROOT
BRANCH   1  11
HETATM   11  N   LIG     1      16.810  38.847  23.801  1.00  0.00    -0.382 N 
HETATM   12  H   LIG     1      16.885  38.194  24.612  1.00  0.00     0.157 HD
HETATM   13  H   LIG     1      16.235  39.713  23.903  1.00  0.00     0.157 HD
ENDBRANCH   1  11
TORSDOF 1
ENDMDL
MODEL 10
REMARK VINA RESULT:      -5.0      2.260      3.168
REMARK  1 active torsions:
REMARK  status: ('A' for Active; 'I' for Inactive)
REMARK    1  A    between atoms: N_1  and  C_2 
ROOT
HETATM    1  C   LIG     1      17.692  36.474  20.487  1.00  0.00     0.155 A 
HETATM    2  N   LIG     1      16.813  35.480  20.158  1.00  0.00    -0.222 NA
HETATM    3  C   LIG     1      15.627  35.322  20.831  1.00  0.00     0.237 A 
HETATM    4  N   LIG     1      15.295  36.164  21.856  1.00  0.00    -0.222 NA
HETATM    5  C   LIG     1      16.169  37.147  22.179  1.00  0.00     0.162 A 
HETATM    6  C   LIG     1      17.341  37.323  21.530  1.00  0.00     0.149 A 
HETATM    7  N   LIG     1      18.012  38.367  22.050  1.00  0.00    -0.236 NA
HETATM    8  C   LIG     1      17.176  38.795  23.035  1.00  0.00     0.209 A 
HETATM    9  N   LIG     1      16.035  38.066  23.138  1.00  0.00    -0.333 N 
HETATM   10  H   LIG     1      15.245  38.195  23.808  1.00  0.00     0.168 HD
ENDROOT
BRANCH   1  11
HETATM   11  N   LIG     1      18.920  36.623  19.775  1.00  0.00    -0.382 N 
HETATM   12  H   LIG     1      19.280  37.575  19.544  1.00  0.00     0.157 HD
HETATM   13  H   LIG     1      19.472  35.789  19.475  1.00  0.00     0.157 HD
ENDBRANCH   1  11
TORSDOF 1
ENDMDL
MODEL 11
REMARK VINA RESULT:      -5.0      2.548      3.609
REMARK  1 active torsions:
REMARK  status: ('A' for Active; 'I' for Inactive)
REMARK    1  A    between atoms: N_1  and  C_2 
ROOT
HETATM    1  C   LIG     1      17.848  37.128  20.709  1.00  0.00     0.155 A 
HETATM    2  N   LIG     1      18.736  37.991  20.130  1.00  0.00    -0.222 NA
HETATM    3  C   LIG     1      19.078  39.177  20.730  1.00  0.00     0.237 A 
HETATM    4  N   LIG     1      18.532  39.526  21.934  1.00  0.00    -0.222 NA
HETATM    5  C   LIG     1      17.653  38.669  22.505  1.00  0.00     0.162 A 
HETATM    6  C   LIG     1      17.302  37.496  21.933  1.00  0.00     0.149 A 
HETATM    7  N   LIG     1      16.417  36.842  22.709  1.00  0.00    -0.236 NA
HETATM    8  C   LIG     1      16.267  37.690  23.764  1.00  0.00     0.209 A 
HETATM    9  N   LIG     1      17.014  38.819  23.667  1.00  0.00    -0.333 N 
HETATM   10  H   LIG     1      17.072  39.615  24.341  1.00  0.00     0.168 HD
ENDROOT
BRANCH   1  11
HETATM   11  N   LIG     1      17.506  35.899  20.070  1.00  0.00    -0.382 N 
HETATM   12  H   LIG     1      17.214  35.075  20.640  1.00  0.00     0.157 HD
HETATM   13  H   LIG     1      17.544  35.805  19.031  1.00  0.00     0.157 HD
ENDBRANCH   1  11
TORSDOF 1
ENDMDL
MODEL 12
REMARK VINA RESULT:      -5.0      8.368     10.195
REMARK  1 active torsions:
REMARK  status: ('A' for Active; 'I' for Inactive)
REMARK    1  A    between atoms: N_1  and  C_2 
ROOT
HETATM    1  C   LIG     1      13.716  30.672  15.724  1.00  0.00     0.155 A 
HETATM    2  N   LIG     1      14.187  29.900  14.699  1.00  0.00    -0.222 NA
HETATM    3  C   LIG     1      15.347  30.218  14.038  1.00  0.00     0.237 A 
HETATM    4  N   LIG     1      16.065  31.327  14.393  1.00  0.00    -0.222 NA
HETATM    5  C   LIG     1      15.594  32.089  15.409  1.00  0.00     0.162 A 
HETATM    6  C   LIG     1      14.456  31.795  16.075  1.00  0.00     0.149 A 
HETATM    7  N   LIG     1      14.222  32.712  17.032  1.00  0.00    -0.236 NA
HETATM    8  C   LIG     1      15.280  33.559  16.894  1.00  0.00     0.209 A 
HETATM    9  N   LIG     1      16.139  33.202  15.906  1.00  0.00    -0.333 N 
HETATM   10  H   LIG     1      17.016  33.684  15.607  1.00  0.00     0.168 HD
ENDROOT
BRANCH   1  11
HETATM   11  N   LIG     1      12.509  30.323  16.401  1.00  0.00    -0.382 N 
HETATM   12  H   LIG     1      11.963  31.054  16.908  1.00  0.00     0.157 HD
HETATM   13  H   LIG     1      12.157  29.340  16.401  1.00  0.00     0.157 HD
ENDBRANCH   1  11
TORSDOF 1
ENDMDL
MODEL 13
REMARK VINA RESULT:      -4.9      8.685     10.359
REMARK  1 active torsions:
REMARK  status: ('A' for Active; 'I' for Inactive)
REMARK    1  A    between atoms: N_1  and  C_2 
ROOT
HETATM    1  C   LIG     1      15.490  31.137  14.152  1.00  0.00     0.155 A 
HETATM    2  N   LIG     1      16.497  31.891  13.619  1.00  0.00    -0.222 NA
HETATM    3  C   LIG     1      16.989  32.994  14.273  1.00  0.00     0.237 A 
HETATM    4  N   LIG     1      16.478  33.366  15.485  1.00  0.00    -0.222 NA
HETATM    5  C   LIG     1      15.480  32.615  16.010  1.00  0.00     0.162 A 
HETATM    6  C   LIG     1      14.981  31.526  15.386  1.00  0.00     0.149 A 
HETATM    7  N   LIG     1      14.003  30.969  16.124  1.00  0.00    -0.236 NA
HETATM    8  C   LIG     1      13.954  31.785  17.213  1.00  0.00     0.209 A 
HETATM    9  N   LIG     1      14.850  32.805  17.171  1.00  0.00    -0.333 N 
HETATM   10  H   LIG     1      15.006  33.556  17.880  1.00  0.00     0.168 HD
ENDROOT
BRANCH   1  11
HETATM   11  N   LIG     1      14.993  29.994  13.458  1.00  0.00    -0.382 N 
HETATM   12  H   LIG     1      15.559  29.552  12.701  1.00  0.00     0.157 HD
HETATM   13  H   LIG     1      14.061  29.585  13.694  1.00  0.00     0.157 HD
ENDBRANCH   1  11
TORSDOF 1
ENDMDL
MODEL 14
REMARK VINA RESULT:      -4.9      7.536      9.568
REMARK  1 active torsions:
REMARK  status: ('A' for Active; 'I' for Inactive)
REMARK    1  A    between atoms: N_1  and  C_2 
ROOT
HETATM    1  C   LIG     1      14.976  32.973  17.218  1.00  0.00     0.155 A 
HETATM    2  N   LIG     1      14.011  32.055  17.522  1.00  0.00    -0.222 NA
HETATM    3  C   LIG     1      13.716  31.018  16.671  1.00  0.00     0.237 A 
HETATM    4  N   LIG     1      14.388  30.880  15.489  1.00  0.00    -0.222 NA
HETATM    5  C   LIG     1      15.343  31.793  15.191  1.00  0.00     0.162 A 
HETATM    6  C   LIG     1      15.652  32.820  16.013  1.00  0.00     0.149 A 
HETATM    7  N   LIG     1      16.632  33.571  15.477  1.00  0.00    -0.236 NA
HETATM    8  C   LIG     1      16.883  32.933  14.301  1.00  0.00     0.209 A 
HETATM    9  N   LIG     1      16.108  31.837  14.098  1.00  0.00    -0.333 N 
HETATM   10  H   LIG     1      16.111  31.187  13.281  1.00  0.00     0.168 HD
ENDROOT
BRANCH   1  11
HETATM   11  N   LIG     1      15.269  34.043  18.116  1.00  0.00    -0.382 N 
HETATM   12  H   LIG     1      14.952  33.996  19.109  1.00  0.00     0.157 HD
HETATM   13  H   LIG     1      15.800  34.884  17.795  1.00  0.00     0.157 HD
ENDBRANCH   1  11
TORSDOF 1
ENDMDL
MODEL 15
REMARK VINA RESULT:      -4.9      8.178      9.896
REMARK  1 active torsions:
REMARK  status: ('A' for Active; 'I' for Inactive)
REMARK    1  A    between atoms: N_1  and  C_2 
ROOT
HETATM    1  C   LIG     1      16.404  32.365  15.086  1.00  0.00     0.155 A 
HETATM    2  N   LIG     1      16.230  31.650  13.934  1.00  0.00    -0.222 NA
HETATM    3  C   LIG     1      15.207  30.745  13.801  1.00  0.00     0.237 A 
HETATM    4  N   LIG     1      14.329  30.536  14.829  1.00  0.00    -0.222 NA
HETATM    5  C   LIG     1      14.505  31.247  15.968  1.00  0.00     0.162 A 
HETATM    6  C   LIG     1      15.504  32.144  16.121  1.00  0.00     0.149 A 
HETATM    7  N   LIG     1      15.448  32.705  17.344  1.00  0.00    -0.236 NA
HETATM    8  C   LIG     1      14.365  32.093  17.899  1.00  0.00     0.209 A 
HETATM    9  N   LIG     1      13.766  31.193  17.078  1.00  0.00    -0.333 N 
HETATM   10  H   LIG     1      12.927  30.602  17.271  1.00  0.00     0.168 HD
ENDROOT
BRANCH   1  11
HETATM   11  N   LIG     1      17.474  33.303  15.204  1.00  0.00    -0.382 N 
HETATM   12  H   LIG     1      18.457  33.003  15.022  1.00  0.00     0.157 HD
HETATM   13  H   LIG     1      17.292  34.295  15.475  1.00  0.00     0.157 HD
ENDBRANCH   1  11
TORSDOF 1
ENDMDL
MODEL 16
REMARK VINA RESULT:      -4.9      2.800      3.455
REMARK  1 active torsions:
REMARK  status: ('A' for Active; 'I' for Inactive)
REMARK    1  A    between atoms: N_1  and  C_2 
ROOT
HETATM    1  C   LIG     1      18.622  38.728  20.802  1.00  0.00     0.155 A 
HETATM    2  N   LIG     1      19.124  37.981  19.773  1.00  0.00    -0.222 NA
HETATM    3  C   LIG     1      18.691  36.699  19.543  1.00  0.00     0.237 A 
HETATM    4  N   LIG     1      17.740  36.134  20.346  1.00  0.00    -0.222 NA
HETATM    5  C   LIG     1      17.246  36.878  21.364  1.00  0.00     0.162 A 
HETATM    6  C   LIG     1      17.655  38.142  21.609  1.00  0.00     0.149 A 
HETATM    7  N   LIG     1      17.004  38.647  22.674  1.00  0.00    -0.236 NA
HETATM    8  C   LIG     1      16.193  37.617  23.041  1.00  0.00     0.209 A 
HETATM    9  N   LIG     1      16.319  36.517  22.255  1.00  0.00    -0.333 N 
HETATM   10  H   LIG     1      15.811  35.608  22.331  1.00  0.00     0.168 HD
ENDROOT
BRANCH   1  11
HETATM   11  N   LIG     1      19.083  40.060  21.024  1.00  0.00    -0.382 N 
HETATM   12  H   LIG     1      19.948  40.402  20.551  1.00  0.00     0.157 HD
HETATM   13  H   LIG     1      18.568  40.708  21.661  1.00  0.00     0.157 HD
ENDBRANCH   1  11
TORSDOF 1
ENDMDL
MODEL 17
REMARK VINA RESULT:      -4.9      9.018     10.469
REMARK  1 active torsions:
REMARK  status: ('A' for Active; 'I' for Inactive)
REMARK    1  A    between atoms: N_1  and  C_2 
ROOT
HETATM    1  C   LIG     1      14.586  30.668  14.849  1.00  0.00     0.155 A 
HETATM    2  N   LIG     1      13.697  30.625  15.886  1.00  0.00    -0.222 NA
HETATM    3  C   LIG     1      13.768  31.517  16.927  1.00  0.00     0.237 A 
HETATM    4  N   LIG     1      14.739  32.480  16.950  1.00  0.00    -0.222 NA
HETATM    5  C   LIG     1      15.617  32.519  15.920  1.00  0.00     0.162 A 
HETATM    6  C   LIG     1      15.567  31.652  14.885  1.00  0.00     0.149 A 
HETATM    7  N   LIG     1      16.552  31.915  14.005  1.00  0.00    -0.236 NA
HETATM    8  C   LIG     1      17.182  32.978  14.576  1.00  0.00     0.209 A 
HETATM    9  N   LIG     1      16.630  33.372  15.752  1.00  0.00    -0.333 N 
HETATM   10  H   LIG     1      16.929  34.156  16.375  1.00  0.00     0.168 HD
ENDROOT
BRANCH   1  11
HETATM   11  N   LIG     1      14.496  29.733  13.775  1.00  0.00    -0.382 N 
HETATM   12  H   LIG     1      15.062  29.872  12.909  1.00  0.00     0.157 HD
HETATM   13  H   LIG     1      13.866  28.902  13.837  1.00  0.00     0.157 HD
ENDBRANCH   1  11
TORSDOF 1
ENDMDL
MODEL 18
REMARK VINA RESULT:      -4.9      8.732     10.644
REMARK  1 active torsions:
REMARK  status: ('A' for Active; 'I' for Inactive)
REMARK    1  A    between atoms: N_1  and  C_2 
ROOT
HETATM    1  C   LIG     1      15.687  32.631  15.871  1.00  0.00     0.155 A 
HETATM    2  N   LIG     1      14.877  32.814  16.956  1.00  0.00    -0.222 NA
HETATM    3  C   LIG     1      13.823  31.972  17.213  1.00  0.00     0.237 A 
HETATM    4  N   LIG     1      13.556  30.922  16.379  1.00  0.00    -0.222 NA
HETATM    5  C   LIG     1      14.361  30.745  15.304  1.00  0.00     0.162 A 
HETATM    6  C   LIG     1      15.405  31.559  15.032  1.00  0.00     0.149 A 
HETATM    7  N   LIG     1      16.033  31.157  13.912  1.00  0.00    -0.236 NA
HETATM    8  C   LIG     1      15.306  30.068  13.540  1.00  0.00     0.209 A 
HETATM    9  N   LIG     1      14.274  29.789  14.376  1.00  0.00    -0.333 N 
HETATM   10  H   LIG     1      13.578  29.013  14.307  1.00  0.00     0.168 HD
ENDROOT
BRANCH   1  11
HETATM   11  N   LIG     1      16.779  33.515  15.622  1.00  0.00    -0.382 N 
HETATM   12  H   LIG     1      17.631  33.170  15.127  1.00  0.00     0.157 HD
HETATM   13  H   LIG     1      16.744  34.513  15.929  1.00  0.00     0.157 HD
ENDBRANCH   1  11
TORSDOF 1
ENDMDL
MODEL 19
REMARK VINA RESULT:      -4.7      1.837      3.334
REMARK  1 active torsions:
REMARK  status: ('A' for Active; 'I' for Inactive)
REMARK    1  A    between atoms: N_1  and  C_2 
ROOT
HETATM    1  C   LIG     1      17.967  38.568  22.691  1.00  0.00     0.155 A 
HETATM    2  N   LIG     1      17.811  38.792  24.030  1.00  0.00    -0.222 NA
HETATM    3  C   LIG     1      17.228  37.857  24.849  1.00  0.00     0.237 A 
HETATM    4  N   LIG     1      16.783  36.669  24.338  1.00  0.00    -0.222 NA
HETATM    5  C   LIG     1      16.939  36.452  23.010  1.00  0.00     0.162 A 
HETATM    6  C   LIG     1      17.511  37.356  22.185  1.00  0.00     0.149 A 
HETATM    7  N   LIG     1      17.540  36.888  20.924  1.00  0.00    -0.236 NA
HETATM    8  C   LIG     1      16.956  35.664  21.049  1.00  0.00     0.209 A 
HETATM    9  N   LIG     1      16.577  35.369  22.319  1.00  0.00    -0.333 N 
HETATM   10  H   LIG     1      16.114  34.501  22.669  1.00  0.00     0.168 HD
ENDROOT
BRANCH   1  11
HETATM   11  N   LIG     1      18.577  39.552  21.856  1.00  0.00    -0.382 N 
HETATM   12  H   LIG     1      19.208  40.272  22.270  1.00  0.00     0.157 HD
HETATM   13  H   LIG     1      18.402  39.566  20.826  1.00  0.00     0.157 HD
ENDBRANCH   1  11
TORSDOF 1
ENDMDL
MODEL 20
REMARK VINA RESULT:      -4.6      2.368      3.999
REMARK  1 active torsions:
REMARK  status: ('A' for Active; 'I' for Inactive)
REMARK    1  A    between atoms: N_1  and  C_2 
ROOT
HETATM    1  C   LIG     1      18.301  38.175  21.053  1.00  0.00     0.155 A 
HETATM    2  N   LIG     1      18.107  39.113  22.027  1.00  0.00    -0.222 NA
HETATM    3  C   LIG     1      17.148  38.952  22.996  1.00  0.00     0.237 A 
HETATM    4  N   LIG     1      16.357  37.836  23.009  1.00  0.00    -0.222 NA
HETATM    5  C   LIG     1      16.553  36.909  22.041  1.00  0.00     0.162 A 
HETATM    6  C   LIG     1      17.491  37.046  21.079  1.00  0.00     0.149 A 
HETATM    7  N   LIG     1      17.472  35.984  20.251  1.00  0.00    -0.236 NA
HETATM    8  C   LIG     1      16.476  35.218  20.776  1.00  0.00     0.209 A 
HETATM    9  N   LIG     1      15.894  35.760  21.877  1.00  0.00    -0.333 N 
HETATM   10  H   LIG     1      15.116  35.369  22.454  1.00  0.00     0.168 HD
ENDROOT
BRANCH   1  11
HETATM   11  N   LIG     1      19.304  38.360  20.055  1.00  0.00    -0.382 N 
HETATM   12  H   LIG     1      19.418  39.288  19.592  1.00  0.00     0.157 HD
HETATM   13  H   LIG     1      19.934  37.575  19.774  1.00  0.00     0.157 HD
ENDBRANCH   1  11
TORSDOF 1
ENDMDL
