REMARK  1 active torsions:
REMARK  status: ('A' for Active; 'I' for Inactive)
REMARK    1  A    between atoms: N_1  and  C_2 
ROOT
HETATM    1  C   LIG     1      -1.128  -0.474   0.475  1.00  0.00     0.155 A 
HETATM    2  N   LIG     1      -1.726   0.698   0.845  1.00  0.00    -0.222 NA
HETATM    3  C   LIG     1      -1.104   1.908   0.662  1.00  0.00     0.237 A 
HETATM    4  N   LIG     1       0.141   1.969   0.100  1.00  0.00    -0.222 NA
HETATM    5  C   LIG     1       0.730   0.805  -0.265  1.00  0.00     0.162 A 
HETATM    6  C   LIG     1       0.137  -0.397  -0.096  1.00  0.00     0.149 A 
HETATM    7  N   LIG     1       0.938  -1.382  -0.543  1.00  0.00    -0.236 NA
HETATM    8  C   LIG     1       2.030  -0.698  -0.983  1.00  0.00     0.209 A 
HETATM    9  N   LIG     1       1.931   0.647  -0.826  1.00  0.00    -0.333 N 
HETATM   10  H   LIG     1       2.629   1.380  -1.083  1.00  0.00     0.168 HD
ENDROOT
BRANCH   1  11
HETATM   11  N   LIG     1      -1.791  -1.722   0.672  1.00  0.00    -0.382 N 
HETATM   12  H   LIG     1      -2.741  -1.749   1.103  1.00  0.00     0.157 HD
HETATM   13  H   LIG     1      -1.339  -2.621   0.392  1.00  0.00     0.157 HD
ENDBRANCH   1  11
TORSDOF 1
