REMARK  5 active torsions:
REMARK  status: ('A' for Active; 'I' for Inactive)
REMARK    1  A    between atoms: C_2  and  CA_4 
REMARK    2  A    between atoms: C_2  and  OXT_3 
REMARK    3  A    between atoms: CA_4  and  CB_6 
REMARK    4  A    between atoms: CA_4  and  N_5 
REMARK    5  A    between atoms: CB_6  and  CG_7 
ROOT
ATOM      1  CG  TRP A   1      -0.040  -0.139  -0.228  1.00  0.00    -0.028 A 
ATOM      2  CD1 TRP A   1      -0.408  -1.165  -1.102  1.00  0.00     0.096 A 
ATOM      3  NE1 TRP A   1      -1.749  -1.339  -1.092  1.00  0.00    -0.365 N 
ATOM      4  CE2 TRP A   1      -2.236  -0.430  -0.232  1.00  0.00     0.042 A 
ATOM      5  CD2 TRP A   1      -1.226   0.323   0.310  1.00  0.00    -0.002 A 
ATOM      6  CE3 TRP A   1      -1.484   1.348   1.221  1.00  0.00     0.014 A 
ATOM      7  CZ3 TRP A   1      -2.824   1.588   1.578  1.00  0.00     0.001 A 
ATOM      8  CH2 TRP A   1      -3.863   0.810   1.022  1.00  0.00     0.002 A 
ATOM      9  CZ2 TRP A   1      -3.573  -0.213   0.102  1.00  0.00     0.030 A 
ATOM     10  HE1 TRP A   1      -2.294  -2.032  -1.653  1.00  0.00     0.165 HD
ENDROOT
BRANCH   1  11
ATOM     11  CB  TRP A   1       1.332   0.430   0.044  1.00  0.00     0.087 C 
BRANCH  11  12
ATOM     12  CA  TRP A   1       2.503  -0.440  -0.467  1.00  0.00     0.318 C 
BRANCH  12  13
ATOM     13  C   TRP A   1       3.790   0.338  -0.376  1.00  0.00     0.174 C 
ATOM     14  O   TRP A   1       4.362   0.488   0.737  1.00  0.00    -0.648 OA
BRANCH  13  15
ATOM     15  OXT TRP A   1       4.337   0.940  -1.506  1.00  0.00    -0.775 OA
ATOM     16  HXT TRP A   1       3.890   0.864  -2.413  1.00  0.00     0.167 HD
ENDBRANCH  13  15
ENDBRANCH  12  13
BRANCH  12  17
ATOM     17  N   TRP A   1       2.630  -1.687   0.296  1.00  0.00     0.093 N 
ATOM     18  H1  TRP A   1       2.626  -1.477   1.321  1.00  0.00     0.314 HD
ATOM     19  H2  TRP A   1       1.805  -2.297   0.103  1.00  0.00     0.314 HD
ENDBRANCH  12  17
ENDBRANCH  11  12
ENDBRANCH   1  11
TORSDOF 5
