REMARK  3 active torsions:
REMARK  status: ('A' for Active; 'I' for Inactive)
REMARK    1  A    between atoms: C_2  and  C_3 
REMARK    2  A    between atoms: C_3  and  C_4 
REMARK    3  A    between atoms: C_4  and  C_5 
ROOT
HETATM    1  C   LIG     1       0.075  -0.458  -0.324  1.00  0.00     0.141 C 
HETATM    2  O   LIG     1       0.243  -1.193  -1.288  1.00  0.00    -0.297 OA
ENDROOT
BRANCH   1   3
HETATM    3  C   LIG     1       1.278  -0.009   0.484  1.00  0.00     0.156 C 
BRANCH   3   4
HETATM    4  C   LIG     1       2.569  -0.627   0.003  1.00  0.00     0.130 C 
HETATM    5  C   LIG     1       3.629   0.196  -0.667  1.00  0.00     0.091 C 
HETATM    6  O   LIG     1       2.762  -1.821   0.172  1.00  0.00    -0.298 OA
ENDBRANCH   3   4
ENDBRANCH   1   3
BRANCH   1   7
HETATM    7  C   LIG     1      -1.351  -0.013   0.012  1.00  0.00     0.010 C 
HETATM    8  C   LIG     1      -1.936   0.743  -1.197  1.00  0.00     0.022 C 
HETATM    9  C   LIG     1      -2.209  -1.262   0.296  1.00  0.00     0.022 C 
HETATM   10  C   LIG     1      -1.411   0.914   1.247  1.00  0.00     0.022 C 
ENDBRANCH   1   7
TORSDOF 3
