MODEL 1
REMARK VINA RESULT:      -6.0      0.000      0.000
REMARK  3 active torsions:
REMARK  status: ('A' for Active; 'I' for Inactive)
REMARK    1  A    between atoms: C_2  and  C_3 
REMARK    2  A    between atoms: C_3  and  C_4 
REMARK    3  A    between atoms: C_4  and  C_5 
ROOT
HETATM    1  C   LIG     1      16.442  37.467  22.916  1.00  0.00     0.141 C 
HETATM    2  O   LIG     1      15.349  37.983  23.104  1.00  0.00    -0.297 OA
ENDROOT
BRANCH   1   3
HETATM    3  C   LIG     1      17.668  38.065  23.580  1.00  0.00     0.156 C 
BRANCH   3   4
HETATM    4  C   LIG     1      17.620  37.975  25.086  1.00  0.00     0.130 C 
HETATM    5  C   LIG     1      18.280  36.848  25.824  1.00  0.00     0.091 C 
HETATM    6  O   LIG     1      17.042  38.843  25.721  1.00  0.00    -0.298 OA
ENDBRANCH   3   4
ENDBRANCH   1   3
BRANCH   1   7
HETATM    7  C   LIG     1      16.516  36.224  22.025  1.00  0.00     0.010 C 
HETATM    8  C   LIG     1      17.530  36.481  20.893  1.00  0.00     0.022 C 
HETATM    9  C   LIG     1      16.993  35.029  22.875  1.00  0.00     0.022 C 
HETATM   10  C   LIG     1      15.154  35.862  21.391  1.00  0.00     0.022 C 
ENDBRANCH   1   7
TORSDOF 3
ENDMDL
MODEL 2
REMARK VINA RESULT:      -5.5      1.788      2.658
REMARK  3 active torsions:
REMARK  status: ('A' for Active; 'I' for Inactive)
REMARK    1  A    between atoms: C_2  and  C_3 
REMARK    2  A    between atoms: C_3  and  C_4 
REMARK    3  A    between atoms: C_4  and  C_5 
ROOT
HETATM    1  C   LIG     1      17.807  38.034  23.912  1.00  0.00     0.141 C 
HETATM    2  O   LIG     1      18.931  38.516  23.940  1.00  0.00    -0.297 OA
ENDROOT
BRANCH   1   3
HETATM    3  C   LIG     1      17.143  37.625  25.214  1.00  0.00     0.156 C 
BRANCH   3   4
HETATM    4  C   LIG     1      17.847  36.475  25.893  1.00  0.00     0.130 C 
HETATM    5  C   LIG     1      17.557  35.051  25.522  1.00  0.00     0.091 C 
HETATM    6  O   LIG     1      18.679  36.706  26.756  1.00  0.00    -0.298 OA
ENDBRANCH   3   4
ENDBRANCH   1   3
BRANCH   1   7
HETATM    7  C   LIG     1      17.115  37.879  22.555  1.00  0.00     0.010 C 
HETATM    8  C   LIG     1      15.621  38.221  22.715  1.00  0.00     0.022 C 
HETATM    9  C   LIG     1      17.758  38.858  21.553  1.00  0.00     0.022 C 
HETATM   10  C   LIG     1      17.233  36.447  21.985  1.00  0.00     0.022 C 
ENDBRANCH   1   7
TORSDOF 3
ENDMDL
MODEL 3
REMARK VINA RESULT:      -5.4      1.820      2.802
REMARK  3 active torsions:
REMARK  status: ('A' for Active; 'I' for Inactive)
REMARK    1  A    between atoms: C_2  and  C_3 
REMARK    2  A    between atoms: C_3  and  C_4 
REMARK    3  A    between atoms: C_4  and  C_5 
ROOT
HETATM    1  C   LIG     1      16.919  37.283  23.994  1.00  0.00     0.141 C 
HETATM    2  O   LIG     1      16.434  37.941  24.905  1.00  0.00    -0.297 OA
ENDROOT
BRANCH   1   3
HETATM    3  C   LIG     1      17.264  35.825  24.234  1.00  0.00     0.156 C 
BRANCH   3   4
HETATM    4  C   LIG     1      17.607  35.536  25.675  1.00  0.00     0.130 C 
HETATM    5  C   LIG     1      18.597  36.374  26.428  1.00  0.00     0.091 C 
HETATM    6  O   LIG     1      17.060  34.606  26.247  1.00  0.00    -0.298 OA
ENDBRANCH   3   4
ENDBRANCH   1   3
BRANCH   1   7
HETATM    7  C   LIG     1      17.141  37.967  22.642  1.00  0.00     0.010 C 
HETATM    8  C   LIG     1      17.188  36.890  21.540  1.00  0.00     0.022 C 
HETATM    9  C   LIG     1      15.965  38.925  22.368  1.00  0.00     0.022 C 
HETATM   10  C   LIG     1      18.456  38.777  22.592  1.00  0.00     0.022 C 
ENDBRANCH   1   7
TORSDOF 3
ENDMDL
MODEL 4
REMARK VINA RESULT:      -5.4      2.905      4.410
REMARK  3 active torsions:
REMARK  status: ('A' for Active; 'I' for Inactive)
REMARK    1  A    between atoms: C_2  and  C_3 
REMARK    2  A    between atoms: C_3  and  C_4 
REMARK    3  A    between atoms: C_4  and  C_5 
ROOT
HETATM    1  C   LIG     1      18.359  38.856  22.189  1.00  0.00     0.141 C 
HETATM    2  O   LIG     1      19.346  39.093  22.873  1.00  0.00    -0.297 OA
ENDROOT
BRANCH   1   3
HETATM    3  C   LIG     1      18.335  39.310  20.741  1.00  0.00     0.156 C 
BRANCH   3   4
HETATM    4  C   LIG     1      19.421  38.671  19.910  1.00  0.00     0.130 C 
HETATM    5  C   LIG     1      19.356  37.225  19.514  1.00  0.00     0.091 C 
HETATM    6  O   LIG     1      20.370  39.346  19.540  1.00  0.00    -0.298 OA
ENDBRANCH   3   4
ENDBRANCH   1   3
BRANCH   1   7
HETATM    7  C   LIG     1      17.196  38.094  22.829  1.00  0.00     0.010 C 
HETATM    8  C   LIG     1      17.438  37.996  24.348  1.00  0.00     0.022 C 
HETATM    9  C   LIG     1      15.889  38.871  22.571  1.00  0.00     0.022 C 
HETATM   10  C   LIG     1      17.036  36.665  22.263  1.00  0.00     0.022 C 
ENDBRANCH   1   7
TORSDOF 3
ENDMDL
MODEL 5
REMARK VINA RESULT:      -5.3      2.702      3.935
REMARK  3 active torsions:
REMARK  status: ('A' for Active; 'I' for Inactive)
REMARK    1  A    between atoms: C_2  and  C_3 
REMARK    2  A    between atoms: C_3  and  C_4 
REMARK    3  A    between atoms: C_4  and  C_5 
ROOT
HETATM    1  C   LIG     1      18.515  38.735  20.865  1.00  0.00     0.141 C 
HETATM    2  O   LIG     1      18.741  39.856  21.302  1.00  0.00    -0.297 OA
ENDROOT
BRANCH   1   3
HETATM    3  C   LIG     1      17.560  37.826  21.614  1.00  0.00     0.156 C 
BRANCH   3   4
HETATM    4  C   LIG     1      17.042  38.446  22.890  1.00  0.00     0.130 C 
HETATM    5  C   LIG     1      17.723  38.213  24.206  1.00  0.00     0.091 C 
HETATM    6  O   LIG     1      16.055  39.163  22.851  1.00  0.00    -0.298 OA
ENDBRANCH   3   4
ENDBRANCH   1   3
BRANCH   1   7
HETATM    7  C   LIG     1      19.202  38.309  19.564  1.00  0.00     0.010 C 
HETATM    8  C   LIG     1      18.928  36.812  19.322  1.00  0.00     0.022 C 
HETATM    9  C   LIG     1      18.616  39.131  18.399  1.00  0.00     0.022 C 
HETATM   10  C   LIG     1      20.732  38.529  19.598  1.00  0.00     0.022 C 
ENDBRANCH   1   7
TORSDOF 3
ENDMDL
MODEL 6
REMARK VINA RESULT:      -5.2      1.832      2.901
REMARK  3 active torsions:
REMARK  status: ('A' for Active; 'I' for Inactive)
REMARK    1  A    between atoms: C_2  and  C_3 
REMARK    2  A    between atoms: C_3  and  C_4 
REMARK    3  A    between atoms: C_4  and  C_5 
ROOT
HETATM    1  C   LIG     1      16.688  37.476  22.787  1.00  0.00     0.141 C 
HETATM    2  O   LIG     1      16.583  37.428  24.005  1.00  0.00    -0.297 OA
ENDROOT
BRANCH   1   3
HETATM    3  C   LIG     1      16.932  38.814  22.116  1.00  0.00     0.156 C 
BRANCH   3   4
HETATM    4  C   LIG     1      18.399  39.111  21.918  1.00  0.00     0.130 C 
HETATM    5  C   LIG     1      18.953  39.455  20.567  1.00  0.00     0.091 C 
HETATM    6  O   LIG     1      19.152  39.081  22.879  1.00  0.00    -0.298 OA
ENDBRANCH   3   4
ENDBRANCH   1   3
BRANCH   1   7
HETATM    7  C   LIG     1      16.583  36.169  21.996  1.00  0.00     0.010 C 
HETATM    8  C   LIG     1      16.983  34.997  22.913  1.00  0.00     0.022 C 
HETATM    9  C   LIG     1      15.124  35.981  21.535  1.00  0.00     0.022 C 
HETATM   10  C   LIG     1      17.496  36.151  20.749  1.00  0.00     0.022 C 
ENDBRANCH   1   7
TORSDOF 3
ENDMDL
MODEL 7
REMARK VINA RESULT:      -5.2      3.013      4.121
REMARK  3 active torsions:
REMARK  status: ('A' for Active; 'I' for Inactive)
REMARK    1  A    between atoms: C_2  and  C_3 
REMARK    2  A    between atoms: C_3  and  C_4 
REMARK    3  A    between atoms: C_4  and  C_5 
ROOT
HETATM    1  C   LIG     1      17.675  36.933  20.862  1.00  0.00     0.141 C 
HETATM    2  O   LIG     1      17.997  36.330  19.847  1.00  0.00    -0.297 OA
ENDROOT
BRANCH   1   3
HETATM    3  C   LIG     1      18.356  38.249  21.191  1.00  0.00     0.156 C 
BRANCH   3   4
HETATM    4  C   LIG     1      19.068  38.851  20.003  1.00  0.00     0.130 C 
HETATM    5  C   LIG     1      20.478  38.470  19.660  1.00  0.00     0.091 C 
HETATM    6  O   LIG     1      18.482  39.657  19.298  1.00  0.00    -0.298 OA
ENDBRANCH   3   4
ENDBRANCH   1   3
BRANCH   1   7
HETATM    7  C   LIG     1      16.582  36.332  21.750  1.00  0.00     0.010 C 
HETATM    8  C   LIG     1      15.908  37.464  22.549  1.00  0.00     0.022 C 
HETATM    9  C   LIG     1      15.532  35.647  20.852  1.00  0.00     0.022 C 
HETATM   10  C   LIG     1      17.131  35.286  22.747  1.00  0.00     0.022 C 
ENDBRANCH   1   7
TORSDOF 3
ENDMDL
MODEL 8
REMARK VINA RESULT:      -5.0      2.253      4.231
REMARK  3 active torsions:
REMARK  status: ('A' for Active; 'I' for Inactive)
REMARK    1  A    between atoms: C_2  and  C_3 
REMARK    2  A    between atoms: C_3  and  C_4 
REMARK    3  A    between atoms: C_4  and  C_5 
ROOT
HETATM    1  C   LIG     1      17.309  36.619  21.753  1.00  0.00     0.141 C 
HETATM    2  O   LIG     1      17.840  36.803  20.666  1.00  0.00    -0.297 OA
ENDROOT
BRANCH   1   3
HETATM    3  C   LIG     1      16.790  35.236  22.099  1.00  0.00     0.156 C 
BRANCH   3   4
HETATM    4  C   LIG     1      15.584  34.842  21.281  1.00  0.00     0.130 C 
HETATM    5  C   LIG     1      15.595  33.625  20.405  1.00  0.00     0.091 C 
HETATM    6  O   LIG     1      14.571  35.522  21.340  1.00  0.00    -0.298 OA
ENDBRANCH   3   4
ENDBRANCH   1   3
BRANCH   1   7
HETATM    7  C   LIG     1      17.207  37.799  22.723  1.00  0.00     0.010 C 
HETATM    8  C   LIG     1      15.844  38.490  22.527  1.00  0.00     0.022 C 
HETATM    9  C   LIG     1      17.307  37.268  24.167  1.00  0.00     0.022 C 
HETATM   10  C   LIG     1      18.324  38.846  22.507  1.00  0.00     0.022 C 
ENDBRANCH   1   7
TORSDOF 3
ENDMDL
MODEL 9
REMARK VINA RESULT:      -5.0      3.075      4.916
REMARK  3 active torsions:
REMARK  status: ('A' for Active; 'I' for Inactive)
REMARK    1  A    between atoms: C_2  and  C_3 
REMARK    2  A    between atoms: C_3  and  C_4 
REMARK    3  A    between atoms: C_4  and  C_5 
ROOT
HETATM    1  C   LIG     1      18.519  37.115  19.404  1.00  0.00     0.141 C 
HETATM    2  O   LIG     1      18.202  36.613  18.334  1.00  0.00    -0.297 OA
ENDROOT
BRANCH   1   3
HETATM    3  C   LIG     1      18.290  36.336  20.685  1.00  0.00     0.156 C 
BRANCH   3   4
HETATM    4  C   LIG     1      16.828  36.211  21.040  1.00  0.00     0.130 C 
HETATM    5  C   LIG     1      15.949  35.184  20.388  1.00  0.00     0.091 C 
HETATM    6  O   LIG     1      16.350  36.952  21.884  1.00  0.00    -0.298 OA
ENDBRANCH   3   4
ENDBRANCH   1   3
BRANCH   1   7
HETATM    7  C   LIG     1      19.149  38.511  19.394  1.00  0.00     0.010 C 
HETATM    8  C   LIG     1      20.679  38.369  19.515  1.00  0.00     0.022 C 
HETATM    9  C   LIG     1      18.805  39.204  18.060  1.00  0.00     0.022 C 
HETATM   10  C   LIG     1      18.645  39.401  20.553  1.00  0.00     0.022 C 
ENDBRANCH   1   7
TORSDOF 3
ENDMDL
MODEL 10
REMARK VINA RESULT:      -4.9      2.096      4.349
REMARK  3 active torsions:
REMARK  status: ('A' for Active; 'I' for Inactive)
REMARK    1  A    between atoms: C_2  and  C_3 
REMARK    2  A    between atoms: C_3  and  C_4 
REMARK    3  A    between atoms: C_4  and  C_5 
ROOT
HETATM    1  C   LIG     1      17.160  36.292  22.519  1.00  0.00     0.141 C 
HETATM    2  O   LIG     1      17.077  35.471  23.423  1.00  0.00    -0.297 OA
ENDROOT
BRANCH   1   3
HETATM    3  C   LIG     1      17.221  35.808  21.082  1.00  0.00     0.156 C 
BRANCH   3   4
HETATM    4  C   LIG     1      15.948  35.126  20.640  1.00  0.00     0.130 C 
HETATM    5  C   LIG     1      14.609  35.551  21.167  1.00  0.00     0.091 C 
HETATM    6  O   LIG     1      16.006  34.217  19.827  1.00  0.00    -0.298 OA
ENDBRANCH   3   4
ENDBRANCH   1   3
BRANCH   1   7
HETATM    7  C   LIG     1      17.183  37.778  22.885  1.00  0.00     0.010 C 
HETATM    8  C   LIG     1      18.045  38.533  21.854  1.00  0.00     0.022 C 
HETATM    9  C   LIG     1      15.742  38.325  22.842  1.00  0.00     0.022 C 
HETATM   10  C   LIG     1      17.764  38.037  24.294  1.00  0.00     0.022 C 
ENDBRANCH   1   7
TORSDOF 3
ENDMDL
MODEL 11
REMARK VINA RESULT:      -4.7      1.990      2.347
REMARK  3 active torsions:
REMARK  status: ('A' for Active; 'I' for Inactive)
REMARK    1  A    between atoms: C_2  and  C_3 
REMARK    2  A    between atoms: C_3  and  C_4 
REMARK    3  A    between atoms: C_4  and  C_5 
ROOT
HETATM    1  C   LIG     1      17.016  36.012  23.369  1.00  0.00     0.141 C 
HETATM    2  O   LIG     1      17.314  34.826  23.308  1.00  0.00    -0.297 OA
ENDROOT
BRANCH   1   3
HETATM    3  C   LIG     1      17.102  36.731  24.702  1.00  0.00     0.156 C 
BRANCH   3   4
HETATM    4  C   LIG     1      17.599  35.840  25.815  1.00  0.00     0.130 C 
HETATM    5  C   LIG     1      18.708  36.273  26.728  1.00  0.00     0.091 C 
HETATM    6  O   LIG     1      17.082  34.747  25.985  1.00  0.00    -0.298 OA
ENDBRANCH   3   4
ENDBRANCH   1   3
BRANCH   1   7
HETATM    7  C   LIG     1      16.582  36.720  22.082  1.00  0.00     0.010 C 
HETATM    8  C   LIG     1      16.710  38.242  22.282  1.00  0.00     0.022 C 
HETATM    9  C   LIG     1      17.508  36.277  20.932  1.00  0.00     0.022 C 
HETATM   10  C   LIG     1      15.123  36.397  21.687  1.00  0.00     0.022 C 
ENDBRANCH   1   7
TORSDOF 3
ENDMDL
MODEL 12
REMARK VINA RESULT:      -4.6      2.455      4.441
REMARK  3 active torsions:
REMARK  status: ('A' for Active; 'I' for Inactive)
REMARK    1  A    between atoms: C_2  and  C_3 
REMARK    2  A    between atoms: C_3  and  C_4 
REMARK    3  A    between atoms: C_4  and  C_5 
ROOT
HETATM    1  C   LIG     1      17.026  36.555  21.374  1.00  0.00     0.141 C 
HETATM    2  O   LIG     1      16.026  36.018  20.915  1.00  0.00    -0.297 OA
ENDROOT
BRANCH   1   3
HETATM    3  C   LIG     1      18.363  36.336  20.692  1.00  0.00     0.156 C 
BRANCH   3   4
HETATM    4  C   LIG     1      18.468  37.053  19.367  1.00  0.00     0.130 C 
HETATM    5  C   LIG     1      19.101  38.409  19.259  1.00  0.00     0.091 C 
HETATM    6  O   LIG     1      18.038  36.516  18.358  1.00  0.00    -0.298 OA
ENDBRANCH   3   4
ENDBRANCH   1   3
BRANCH   1   7
HETATM    7  C   LIG     1      16.872  37.439  22.615  1.00  0.00     0.010 C 
HETATM    8  C   LIG     1      15.427  37.970  22.674  1.00  0.00     0.022 C 
HETATM    9  C   LIG     1      17.155  36.590  23.870  1.00  0.00     0.022 C 
HETATM   10  C   LIG     1      17.839  38.645  22.611  1.00  0.00     0.022 C 
ENDBRANCH   1   7
TORSDOF 3
ENDMDL
MODEL 13
REMARK VINA RESULT:      -4.6      9.973     11.537
REMARK  3 active torsions:
REMARK  status: ('A' for Active; 'I' for Inactive)
REMARK    1  A    between atoms: C_2  and  C_3 
REMARK    2  A    between atoms: C_3  and  C_4 
REMARK    3  A    between atoms: C_4  and  C_5 
ROOT
HETATM    1  C   LIG     1      18.226  34.209  12.695  1.00  0.00     0.141 C 
HETATM    2  O   LIG     1      17.343  35.019  12.445  1.00  0.00    -0.297 OA
ENDROOT
BRANCH   1   3
HETATM    3  C   LIG     1      18.141  33.392  13.971  1.00  0.00     0.156 C 
BRANCH   3   4
HETATM    4  C   LIG     1      16.736  32.933  14.279  1.00  0.00     0.130 C 
HETATM    5  C   LIG     1      16.057  31.882  13.452  1.00  0.00     0.091 C 
HETATM    6  O   LIG     1      16.141  33.418  15.229  1.00  0.00    -0.298 OA
ENDBRANCH   3   4
ENDBRANCH   1   3
BRANCH   1   7
HETATM    7  C   LIG     1      19.372  34.049  11.693  1.00  0.00     0.010 C 
HETATM    8  C   LIG     1      19.373  32.602  11.162  1.00  0.00     0.022 C 
HETATM    9  C   LIG     1      19.148  35.023  10.520  1.00  0.00     0.022 C 
HETATM   10  C   LIG     1      20.755  34.343  12.317  1.00  0.00     0.022 C 
ENDBRANCH   1   7
TORSDOF 3
ENDMDL
MODEL 14
REMARK VINA RESULT:      -4.6      1.559      3.871
REMARK  3 active torsions:
REMARK  status: ('A' for Active; 'I' for Inactive)
REMARK    1  A    between atoms: C_2  and  C_3 
REMARK    2  A    between atoms: C_3  and  C_4 
REMARK    3  A    between atoms: C_4  and  C_5 
ROOT
HETATM    1  C   LIG     1      16.620  37.900  23.514  1.00  0.00     0.141 C 
HETATM    2  O   LIG     1      15.422  37.955  23.759  1.00  0.00    -0.297 OA
ENDROOT
BRANCH   1   3
HETATM    3  C   LIG     1      17.095  38.108  22.088  1.00  0.00     0.156 C 
BRANCH   3   4
HETATM    4  C   LIG     1      17.304  36.810  21.346  1.00  0.00     0.130 C 
HETATM    5  C   LIG     1      18.290  36.701  20.221  1.00  0.00     0.091 C 
HETATM    6  O   LIG     1      16.665  35.822  21.674  1.00  0.00    -0.298 OA
ENDBRANCH   3   4
ENDBRANCH   1   3
BRANCH   1   7
HETATM    7  C   LIG     1      17.587  37.635  24.671  1.00  0.00     0.010 C 
HETATM    8  C   LIG     1      17.146  38.467  25.891  1.00  0.00     0.022 C 
HETATM    9  C   LIG     1      17.537  36.137  25.030  1.00  0.00     0.022 C 
HETATM   10  C   LIG     1      19.047  38.008  24.324  1.00  0.00     0.022 C 
ENDBRANCH   1   7
TORSDOF 3
ENDMDL
MODEL 15
REMARK VINA RESULT:      -4.4      8.185      9.571
REMARK  3 active torsions:
REMARK  status: ('A' for Active; 'I' for Inactive)
REMARK    1  A    between atoms: C_2  and  C_3 
REMARK    2  A    between atoms: C_3  and  C_4 
REMARK    3  A    between atoms: C_4  and  C_5 
ROOT
HETATM    1  C   LIG     1      15.275  32.852  16.239  1.00  0.00     0.141 C 
HETATM    2  O   LIG     1      15.155  34.060  16.394  1.00  0.00    -0.297 OA
ENDROOT
BRANCH   1   3
HETATM    3  C   LIG     1      16.543  32.308  15.607  1.00  0.00     0.156 C 
BRANCH   3   4
HETATM    4  C   LIG     1      16.811  32.893  14.241  1.00  0.00     0.130 C 
HETATM    5  C   LIG     1      17.998  33.774  13.986  1.00  0.00     0.091 C 
HETATM    6  O   LIG     1      16.054  32.635  13.318  1.00  0.00    -0.298 OA
ENDBRANCH   3   4
ENDBRANCH   1   3
BRANCH   1   7
HETATM    7  C   LIG     1      14.138  31.941  16.709  1.00  0.00     0.010 C 
HETATM    8  C   LIG     1      14.130  30.665  15.845  1.00  0.00     0.022 C 
HETATM    9  C   LIG     1      14.382  31.557  18.182  1.00  0.00     0.022 C 
HETATM   10  C   LIG     1      12.751  32.615  16.602  1.00  0.00     0.022 C 
ENDBRANCH   1   7
TORSDOF 3
ENDMDL
MODEL 16
REMARK VINA RESULT:      -4.4     10.211     12.248
REMARK  3 active torsions:
REMARK  status: ('A' for Active; 'I' for Inactive)
REMARK    1  A    between atoms: C_2  and  C_3 
REMARK    2  A    between atoms: C_3  and  C_4 
REMARK    3  A    between atoms: C_4  and  C_5 
ROOT
HETATM    1  C   LIG     1      19.135  33.296  11.757  1.00  0.00     0.141 C 
HETATM    2  O   LIG     1      18.862  32.128  11.513  1.00  0.00    -0.297 OA
ENDROOT
BRANCH   1   3
HETATM    3  C   LIG     1      18.144  34.142  12.535  1.00  0.00     0.156 C 
BRANCH   3   4
HETATM    4  C   LIG     1      17.352  33.339  13.538  1.00  0.00     0.130 C 
HETATM    5  C   LIG     1      17.914  32.995  14.886  1.00  0.00     0.091 C 
HETATM    6  O   LIG     1      16.223  32.970  13.254  1.00  0.00    -0.298 OA
ENDBRANCH   3   4
ENDBRANCH   1   3
BRANCH   1   7
HETATM    7  C   LIG     1      20.481  33.844  11.275  1.00  0.00     0.010 C 
HETATM    8  C   LIG     1      21.305  34.292  12.498  1.00  0.00     0.022 C 
HETATM    9  C   LIG     1      21.238  32.726  10.532  1.00  0.00     0.022 C 
HETATM   10  C   LIG     1      20.326  35.049  10.320  1.00  0.00     0.022 C 
ENDBRANCH   1   7
TORSDOF 3
ENDMDL
MODEL 17
REMARK VINA RESULT:      -4.2      7.886     10.183
REMARK  3 active torsions:
REMARK  status: ('A' for Active; 'I' for Inactive)
REMARK    1  A    between atoms: C_2  and  C_3 
REMARK    2  A    between atoms: C_3  and  C_4 
REMARK    3  A    between atoms: C_4  and  C_5 
ROOT
HETATM    1  C   LIG     1      15.706  32.252  15.831  1.00  0.00     0.141 C 
HETATM    2  O   LIG     1      16.917  32.281  16.006  1.00  0.00    -0.297 OA
ENDROOT
BRANCH   1   3
HETATM    3  C   LIG     1      15.161  31.739  14.511  1.00  0.00     0.156 C 
BRANCH   3   4
HETATM    4  C   LIG     1      15.032  30.235  14.476  1.00  0.00     0.130 C 
HETATM    5  C   LIG     1      13.691  29.564  14.449  1.00  0.00     0.091 C 
HETATM    6  O   LIG     1      16.041  29.547  14.459  1.00  0.00    -0.298 OA
ENDBRANCH   3   4
ENDBRANCH   1   3
BRANCH   1   7
HETATM    7  C   LIG     1      14.795  32.724  16.967  1.00  0.00     0.010 C 
HETATM    8  C   LIG     1      15.340  32.182  18.303  1.00  0.00     0.022 C 
HETATM    9  C   LIG     1      14.800  34.265  17.002  1.00  0.00     0.022 C 
HETATM   10  C   LIG     1      13.335  32.243  16.800  1.00  0.00     0.022 C 
ENDBRANCH   1   7
TORSDOF 3
ENDMDL
MODEL 18
REMARK VINA RESULT:      -4.2      7.109      8.790
REMARK  3 active torsions:
REMARK  status: ('A' for Active; 'I' for Inactive)
REMARK    1  A    between atoms: C_2  and  C_3 
REMARK    2  A    between atoms: C_3  and  C_4 
REMARK    3  A    between atoms: C_4  and  C_5 
ROOT
HETATM    1  C   LIG     1      15.459  33.245  16.031  1.00  0.00     0.141 C 
HETATM    2  O   LIG     1      16.009  34.326  16.193  1.00  0.00    -0.297 OA
ENDROOT
BRANCH   1   3
HETATM    3  C   LIG     1      14.190  32.937  16.803  1.00  0.00     0.156 C 
BRANCH   3   4
HETATM    4  C   LIG     1      14.432  32.039  17.993  1.00  0.00     0.130 C 
HETATM    5  C   LIG     1      15.358  32.443  19.102  1.00  0.00     0.091 C 
HETATM    6  O   LIG     1      13.855  30.966  18.062  1.00  0.00    -0.298 OA
ENDBRANCH   3   4
ENDBRANCH   1   3
BRANCH   1   7
HETATM    7  C   LIG     1      16.077  32.255  15.040  1.00  0.00     0.010 C 
HETATM    8  C   LIG     1      16.354  32.986  13.712  1.00  0.00     0.022 C 
HETATM    9  C   LIG     1      17.406  31.731  15.620  1.00  0.00     0.022 C 
HETATM   10  C   LIG     1      15.158  31.046  14.753  1.00  0.00     0.022 C 
ENDBRANCH   1   7
TORSDOF 3
ENDMDL
MODEL 19
REMARK VINA RESULT:      -4.0      7.611      9.896
REMARK  3 active torsions:
REMARK  status: ('A' for Active; 'I' for Inactive)
REMARK    1  A    between atoms: C_2  and  C_3 
REMARK    2  A    between atoms: C_3  and  C_4 
REMARK    3  A    between atoms: C_4  and  C_5 
ROOT
HETATM    1  C   LIG     1      15.869  32.779  16.023  1.00  0.00     0.141 C 
HETATM    2  O   LIG     1      16.373  33.794  15.562  1.00  0.00    -0.297 OA
ENDROOT
BRANCH   1   3
HETATM    3  C   LIG     1      16.323  31.426  15.508  1.00  0.00     0.156 C 
BRANCH   3   4
HETATM    4  C   LIG     1      15.783  31.113  14.133  1.00  0.00     0.130 C 
HETATM    5  C   LIG     1      14.734  30.061  13.925  1.00  0.00     0.091 C 
HETATM    6  O   LIG     1      16.199  31.736  13.169  1.00  0.00    -0.298 OA
ENDBRANCH   3   4
ENDBRANCH   1   3
BRANCH   1   7
HETATM    7  C   LIG     1      14.807  32.925  17.117  1.00  0.00     0.010 C 
HETATM    8  C   LIG     1      14.365  34.400  17.189  1.00  0.00     0.022 C 
HETATM    9  C   LIG     1      13.593  32.047  16.754  1.00  0.00     0.022 C 
HETATM   10  C   LIG     1      15.323  32.498  18.510  1.00  0.00     0.022 C 
ENDBRANCH   1   7
TORSDOF 3
ENDMDL
MODEL 20
REMARK VINA RESULT:      -3.9      9.777     11.765
REMARK  3 active torsions:
REMARK  status: ('A' for Active; 'I' for Inactive)
REMARK    1  A    between atoms: C_2  and  C_3 
REMARK    2  A    between atoms: C_3  and  C_4 
REMARK    3  A    between atoms: C_4  and  C_5 
ROOT
HETATM    1  C   LIG     1      19.265  33.964  12.335  1.00  0.00     0.141 C 
HETATM    2  O   LIG     1      20.075  33.785  13.235  1.00  0.00    -0.297 OA
ENDROOT
BRANCH   1   3
HETATM    3  C   LIG     1      17.796  34.123  12.682  1.00  0.00     0.156 C 
BRANCH   3   4
HETATM    4  C   LIG     1      17.548  34.171  14.170  1.00  0.00     0.130 C 
HETATM    5  C   LIG     1      17.467  32.919  14.992  1.00  0.00     0.091 C 
HETATM    6  O   LIG     1      17.421  35.253  14.722  1.00  0.00    -0.298 OA
ENDBRANCH   3   4
ENDBRANCH   1   3
BRANCH   1   7
HETATM    7  C   LIG     1      19.780  34.035  10.895  1.00  0.00     0.010 C 
HETATM    8  C   LIG     1      18.812  34.895  10.060  1.00  0.00     0.022 C 
HETATM    9  C   LIG     1      21.174  34.693  10.897  1.00  0.00     0.022 C 
HETATM   10  C   LIG     1      19.896  32.643  10.235  1.00  0.00     0.022 C 
ENDBRANCH   1   7
TORSDOF 3
ENDMDL
