MODEL 1
REMARK VINA RESULT:      -6.9      0.000      0.000
REMARK  7 active torsions:
REMARK  status: ('A' for Active; 'I' for Inactive)
REMARK    1  A    between atoms: N_1  and  C_2 
REMARK    2  A    between atoms: C_5  and  C_6 
REMARK    3  A    between atoms: C_6  and  C_7 
REMARK    4  A    between atoms: C_9  and  O_10 
REMARK    5  A    between atoms: C_12  and  O_13 
REMARK    6  A    between atoms: C_15  and  O_16 
REMARK    7  A    between atoms: C_19  and  N_20 
ROOT
HETATM    1  C   LIG     1      15.197  34.169  21.127  1.00  0.00     0.082 C 
ENDROOT
BRANCH   1   2
HETATM    2  C   LIG     1      15.227  33.749  19.667  1.00  0.00     0.010 A 
HETATM    3  C   LIG     1      15.462  34.700  18.656  1.00  0.00     0.147 A 
HETATM    4  N   LIG     1      15.503  34.324  17.354  1.00  0.00    -0.075 NA
HETATM    5  C   LIG     1      15.296  33.035  16.991  1.00  0.00     0.721 A 
HETATM    6  N   LIG     1      15.012  32.104  17.936  1.00  0.00    -0.045 NA
HETATM    7  C   LIG     1      14.951  32.422  19.257  1.00  0.00     0.148 A 
BRANCH   5   8
HETATM    8  N   LIG     1      15.352  32.661  15.616  1.00  0.00    -0.231 N 
HETATM    9  H   LIG     1      15.366  33.392  14.870  1.00  0.00     0.174 HD
HETATM   10  H   LIG     1      15.381  31.655  15.343  1.00  0.00     0.174 HD
ENDBRANCH   5   8
BRANCH   7  11
HETATM   11  N   LIG     1      14.577  31.398  20.185  1.00  0.00    -0.383 N 
HETATM   12  H   LIG     1      14.365  30.438  19.834  1.00  0.00     0.157 HD
HETATM   13  H   LIG     1      14.381  31.592  21.191  1.00  0.00     0.157 HD
ENDBRANCH   7  11
ENDBRANCH   1   2
BRANCH   1  14
HETATM   14  C   LIG     1      16.081  35.361  21.414  1.00  0.00    -0.048 A 
HETATM   15  C   LIG     1      15.845  36.152  22.541  1.00  0.00     0.047 A 
HETATM   16  C   LIG     1      16.660  37.262  22.832  1.00  0.00     0.104 A 
HETATM   17  C   LIG     1      17.738  37.586  21.961  1.00  0.00     0.135 A 
HETATM   18  C   LIG     1      17.968  36.778  20.815  1.00  0.00     0.104 A 
HETATM   19  C   LIG     1      17.138  35.683  20.561  1.00  0.00     0.047 A 
BRANCH  16  20
HETATM   20  O   LIG     1      16.415  38.045  23.972  1.00  0.00    -0.353 OA
HETATM   21  C   LIG     1      17.131  37.953  25.200  1.00  0.00     0.210 C 
ENDBRANCH  16  20
BRANCH  17  22
HETATM   22  O   LIG     1      18.592  38.681  22.190  1.00  0.00    -0.351 OA
HETATM   23  C   LIG     1      18.520  39.972  21.593  1.00  0.00     0.210 C 
ENDBRANCH  17  22
BRANCH  18  24
HETATM   24  O   LIG     1      19.001  37.000  19.884  1.00  0.00    -0.353 OA
HETATM   25  C   LIG     1      18.982  37.912  18.790  1.00  0.00     0.210 C 
ENDBRANCH  18  24
ENDBRANCH   1  14
TORSDOF 7
ENDMDL
MODEL 2
REMARK VINA RESULT:      -6.8      0.061      2.781
REMARK  7 active torsions:
REMARK  status: ('A' for Active; 'I' for Inactive)
REMARK    1  A    between atoms: N_1  and  C_2 
REMARK    2  A    between atoms: C_5  and  C_6 
REMARK    3  A    between atoms: C_6  and  C_7 
REMARK    4  A    between atoms: C_9  and  O_10 
REMARK    5  A    between atoms: C_12  and  O_13 
REMARK    6  A    between atoms: C_15  and  O_16 
REMARK    7  A    between atoms: C_19  and  N_20 
ROOT
HETATM    1  C   LIG     1      15.224  34.191  21.127  1.00  0.00     0.082 C 
ENDROOT
BRANCH   1   2
HETATM    2  C   LIG     1      15.235  33.762  19.669  1.00  0.00     0.010 A 
HETATM    3  C   LIG     1      15.460  34.706  18.649  1.00  0.00     0.147 A 
HETATM    4  N   LIG     1      15.485  34.323  17.349  1.00  0.00    -0.075 NA
HETATM    5  C   LIG     1      15.270  33.031  16.997  1.00  0.00     0.721 A 
HETATM    6  N   LIG     1      14.995  32.107  17.951  1.00  0.00    -0.045 NA
HETATM    7  C   LIG     1      14.951  32.434  19.270  1.00  0.00     0.148 A 
BRANCH   5   8
HETATM    8  N   LIG     1      15.308  32.649  15.623  1.00  0.00    -0.231 N 
HETATM    9  H   LIG     1      14.438  32.663  15.046  1.00  0.00     0.174 HD
HETATM   10  H   LIG     1      16.206  32.354  15.182  1.00  0.00     0.174 HD
ENDBRANCH   5   8
BRANCH   7  11
HETATM   11  N   LIG     1      14.586  31.416  20.209  1.00  0.00    -0.383 N 
HETATM   12  H   LIG     1      15.008  31.423  21.164  1.00  0.00     0.157 HD
HETATM   13  H   LIG     1      14.010  30.587  19.948  1.00  0.00     0.157 HD
ENDBRANCH   7  11
ENDBRANCH   1   2
BRANCH   1  14
HETATM   14  C   LIG     1      16.125  35.373  21.398  1.00  0.00    -0.048 A 
HETATM   15  C   LIG     1      17.164  35.679  20.516  1.00  0.00     0.047 A 
HETATM   16  C   LIG     1      18.011  36.780  20.745  1.00  0.00     0.104 A 
HETATM   17  C   LIG     1      17.809  37.591  21.896  1.00  0.00     0.135 A 
HETATM   18  C   LIG     1      16.752  37.271  22.791  1.00  0.00     0.104 A 
HETATM   19  C   LIG     1      15.931  36.170  22.528  1.00  0.00     0.047 A 
BRANCH  16  20
HETATM   20  O   LIG     1      19.048  37.079  19.846  1.00  0.00    -0.353 OA
HETATM   21  C   LIG     1      18.943  37.968  18.738  1.00  0.00     0.210 C 
ENDBRANCH  16  20
BRANCH  17  22
HETATM   22  O   LIG     1      18.617  38.706  22.188  1.00  0.00    -0.351 OA
HETATM   23  C   LIG     1      18.594  39.979  21.551  1.00  0.00     0.210 C 
ENDBRANCH  17  22
BRANCH  18  24
HETATM   24  O   LIG     1      16.456  37.998  23.960  1.00  0.00    -0.353 OA
HETATM   25  C   LIG     1      17.128  37.912  25.211  1.00  0.00     0.210 C 
ENDBRANCH  18  24
ENDBRANCH   1  14
TORSDOF 7
ENDMDL
MODEL 3
REMARK VINA RESULT:      -6.2      5.308      9.024
REMARK  7 active torsions:
REMARK  status: ('A' for Active; 'I' for Inactive)
REMARK    1  A    between atoms: N_1  and  C_2 
REMARK    2  A    between atoms: C_5  and  C_6 
REMARK    3  A    between atoms: C_6  and  C_7 
REMARK    4  A    between atoms: C_9  and  O_10 
REMARK    5  A    between atoms: C_12  and  O_13 
REMARK    6  A    between atoms: C_15  and  O_16 
REMARK    7  A    between atoms: C_19  and  N_20 
ROOT
HETATM    1  C   LIG     1      13.249  31.760  16.794  1.00  0.00     0.082 C 
ENDROOT
BRANCH   1   2
HETATM    2  C   LIG     1      14.164  32.701  17.559  1.00  0.00     0.010 A 
HETATM    3  C   LIG     1      14.600  33.905  16.975  1.00  0.00     0.147 A 
HETATM    4  N   LIG     1      15.405  34.753  17.662  1.00  0.00    -0.075 NA
HETATM    5  C   LIG     1      15.829  34.454  18.914  1.00  0.00     0.721 A 
HETATM    6  N   LIG     1      15.472  33.277  19.485  1.00  0.00    -0.045 NA
HETATM    7  C   LIG     1      14.672  32.384  18.842  1.00  0.00     0.148 A 
BRANCH   5   8
HETATM    8  N   LIG     1      16.668  35.364  19.621  1.00  0.00    -0.231 N 
HETATM    9  H   LIG     1      17.706  35.245  19.610  1.00  0.00     0.174 HD
HETATM   10  H   LIG     1      16.254  36.160  20.155  1.00  0.00     0.174 HD
ENDBRANCH   5   8
BRANCH   7  11
HETATM   11  N   LIG     1      14.398  31.134  19.484  1.00  0.00    -0.383 N 
HETATM   12  H   LIG     1      14.703  30.245  19.029  1.00  0.00     0.157 HD
HETATM   13  H   LIG     1      13.793  31.054  20.329  1.00  0.00     0.157 HD
ENDBRANCH   7  11
ENDBRANCH   1   2
BRANCH   1  14
HETATM   14  C   LIG     1      13.963  31.015  15.690  1.00  0.00    -0.048 A 
HETATM   15  C   LIG     1      13.554  29.728  15.336  1.00  0.00     0.047 A 
HETATM   16  C   LIG     1      14.199  29.019  14.305  1.00  0.00     0.104 A 
HETATM   17  C   LIG     1      15.289  29.621  13.618  1.00  0.00     0.135 A 
HETATM   18  C   LIG     1      15.702  30.929  13.987  1.00  0.00     0.104 A 
HETATM   19  C   LIG     1      15.035  31.603  15.015  1.00  0.00     0.047 A 
BRANCH  16  20
HETATM   20  O   LIG     1      13.772  27.727  13.955  1.00  0.00    -0.353 OA
HETATM   21  C   LIG     1      12.479  27.396  13.459  1.00  0.00     0.210 C 
ENDBRANCH  16  20
BRANCH  17  22
HETATM   22  O   LIG     1      15.981  28.970  12.578  1.00  0.00    -0.351 OA
HETATM   23  C   LIG     1      16.080  27.568  12.352  1.00  0.00     0.210 C 
ENDBRANCH  17  22
BRANCH  18  24
HETATM   24  O   LIG     1      16.766  31.626  13.380  1.00  0.00    -0.353 OA
HETATM   25  C   LIG     1      16.984  33.032  13.397  1.00  0.00     0.210 C 
ENDBRANCH  18  24
ENDBRANCH   1  14
TORSDOF 7
ENDMDL
MODEL 4
REMARK VINA RESULT:      -6.1      4.098      6.887
REMARK  7 active torsions:
REMARK  status: ('A' for Active; 'I' for Inactive)
REMARK    1  A    between atoms: N_1  and  C_2 
REMARK    2  A    between atoms: C_5  and  C_6 
REMARK    3  A    between atoms: C_6  and  C_7 
REMARK    4  A    between atoms: C_9  and  O_10 
REMARK    5  A    between atoms: C_12  and  O_13 
REMARK    6  A    between atoms: C_15  and  O_16 
REMARK    7  A    between atoms: C_19  and  N_20 
ROOT
HETATM    1  C   LIG     1      15.960  35.376  21.559  1.00  0.00     0.082 C 
ENDROOT
BRANCH   1   2
HETATM    2  C   LIG     1      16.926  36.507  21.251  1.00  0.00     0.010 A 
HETATM    3  C   LIG     1      17.970  36.321  20.325  1.00  0.00     0.147 A 
HETATM    4  N   LIG     1      18.825  37.334  20.038  1.00  0.00    -0.075 NA
HETATM    5  C   LIG     1      18.713  38.538  20.650  1.00  0.00     0.721 A 
HETATM    6  N   LIG     1      17.752  38.733  21.587  1.00  0.00    -0.045 NA
HETATM    7  C   LIG     1      16.871  37.753  21.922  1.00  0.00     0.148 A 
BRANCH   5   8
HETATM    8  N   LIG     1      19.618  39.591  20.326  1.00  0.00    -0.231 N 
HETATM    9  H   LIG     1      20.625  39.525  20.596  1.00  0.00     0.174 HD
HETATM   10  H   LIG     1      19.284  40.437  19.816  1.00  0.00     0.174 HD
ENDBRANCH   5   8
BRANCH   7  11
HETATM   11  N   LIG     1      15.931  38.014  22.970  1.00  0.00    -0.383 N 
HETATM   12  H   LIG     1      15.192  37.308  23.185  1.00  0.00     0.157 HD
HETATM   13  H   LIG     1      15.865  38.935  23.453  1.00  0.00     0.157 HD
ENDBRANCH   7  11
ENDBRANCH   1   2
BRANCH   1  14
HETATM   14  C   LIG     1      15.662  34.513  20.354  1.00  0.00    -0.048 A 
HETATM   15  C   LIG     1      15.790  35.039  19.067  1.00  0.00     0.047 A 
HETATM   16  C   LIG     1      15.526  34.251  17.931  1.00  0.00     0.104 A 
HETATM   17  C   LIG     1      15.116  32.899  18.097  1.00  0.00     0.135 A 
HETATM   18  C   LIG     1      14.984  32.373  19.411  1.00  0.00     0.104 A 
HETATM   19  C   LIG     1      15.257  33.186  20.514  1.00  0.00     0.047 A 
BRANCH  16  20
HETATM   20  O   LIG     1      15.665  34.792  16.642  1.00  0.00    -0.353 OA
HETATM   21  C   LIG     1      16.638  34.388  15.683  1.00  0.00     0.210 C 
ENDBRANCH  16  20
BRANCH  17  22
HETATM   22  O   LIG     1      14.834  32.054  17.007  1.00  0.00    -0.351 OA
HETATM   23  C   LIG     1      13.554  31.609  16.569  1.00  0.00     0.210 C 
ENDBRANCH  17  22
BRANCH  18  24
HETATM   24  O   LIG     1      14.586  31.053  19.699  1.00  0.00    -0.353 OA
HETATM   25  C   LIG     1      14.828  30.333  20.903  1.00  0.00     0.210 C 
ENDBRANCH  18  24
ENDBRANCH   1  14
TORSDOF 7
ENDMDL
MODEL 5
REMARK VINA RESULT:      -6.0      5.237      9.043
REMARK  7 active torsions:
REMARK  status: ('A' for Active; 'I' for Inactive)
REMARK    1  A    between atoms: N_1  and  C_2 
REMARK    2  A    between atoms: C_5  and  C_6 
REMARK    3  A    between atoms: C_6  and  C_7 
REMARK    4  A    between atoms: C_9  and  O_10 
REMARK    5  A    between atoms: C_12  and  O_13 
REMARK    6  A    between atoms: C_15  and  O_16 
REMARK    7  A    between atoms: C_19  and  N_20 
ROOT
HETATM    1  C   LIG     1      13.267  31.805  17.014  1.00  0.00     0.082 C 
ENDROOT
BRANCH   1   2
HETATM    2  C   LIG     1      14.202  32.772  17.721  1.00  0.00     0.010 A 
HETATM    3  C   LIG     1      14.628  33.950  17.080  1.00  0.00     0.147 A 
HETATM    4  N   LIG     1      15.450  34.821  17.716  1.00  0.00    -0.075 NA
HETATM    5  C   LIG     1      15.902  34.569  18.969  1.00  0.00     0.721 A 
HETATM    6  N   LIG     1      15.554  33.416  19.594  1.00  0.00    -0.045 NA
HETATM    7  C   LIG     1      14.738  32.502  19.004  1.00  0.00     0.148 A 
BRANCH   5   8
HETATM    8  N   LIG     1      16.760  35.503  19.621  1.00  0.00    -0.231 N 
HETATM    9  H   LIG     1      17.403  35.189  20.382  1.00  0.00     0.174 HD
HETATM   10  H   LIG     1      16.754  36.509  19.343  1.00  0.00     0.174 HD
ENDBRANCH   5   8
BRANCH   7  11
HETATM   11  N   LIG     1      14.474  31.279  19.700  1.00  0.00    -0.383 N 
HETATM   12  H   LIG     1      13.897  31.297  20.570  1.00  0.00     0.157 HD
HETATM   13  H   LIG     1      14.936  30.378  19.452  1.00  0.00     0.157 HD
ENDBRANCH   7  11
ENDBRANCH   1   2
BRANCH   1  14
HETATM   14  C   LIG     1      13.931  31.079  15.867  1.00  0.00    -0.048 A 
HETATM   15  C   LIG     1      15.050  31.633  15.241  1.00  0.00     0.047 A 
HETATM   16  C   LIG     1      15.689  30.970  14.177  1.00  0.00     0.104 A 
HETATM   17  C   LIG     1      15.184  29.719  13.727  1.00  0.00     0.135 A 
HETATM   18  C   LIG     1      14.043  29.163  14.367  1.00  0.00     0.104 A 
HETATM   19  C   LIG     1      13.437  29.851  15.422  1.00  0.00     0.047 A 
BRANCH  16  20
HETATM   20  O   LIG     1      16.818  31.536  13.561  1.00  0.00    -0.353 OA
HETATM   21  C   LIG     1      17.024  32.930  13.349  1.00  0.00     0.210 C 
ENDBRANCH  16  20
BRANCH  17  22
HETATM   22  O   LIG     1      15.772  29.001  12.669  1.00  0.00    -0.351 OA
HETATM   23  C   LIG     1      16.061  27.607  12.626  1.00  0.00     0.210 C 
ENDBRANCH  17  22
BRANCH  18  24
HETATM   24  O   LIG     1      13.454  27.935  14.010  1.00  0.00    -0.353 OA
HETATM   25  C   LIG     1      12.205  27.746  13.355  1.00  0.00     0.210 C 
ENDBRANCH  18  24
ENDBRANCH   1  14
TORSDOF 7
ENDMDL
MODEL 6
REMARK VINA RESULT:      -5.9      7.932     11.185
REMARK  7 active torsions:
REMARK  status: ('A' for Active; 'I' for Inactive)
REMARK    1  A    between atoms: N_1  and  C_2 
REMARK    2  A    between atoms: C_5  and  C_6 
REMARK    3  A    between atoms: C_6  and  C_7 
REMARK    4  A    between atoms: C_9  and  O_10 
REMARK    5  A    between atoms: C_12  and  O_13 
REMARK    6  A    between atoms: C_15  and  O_16 
REMARK    7  A    between atoms: C_19  and  N_20 
ROOT
HETATM    1  C   LIG     1      14.331  30.825  15.404  1.00  0.00     0.082 C 
ENDROOT
BRANCH   1   2
HETATM    2  C   LIG     1      15.467  31.680  14.871  1.00  0.00     0.010 A 
HETATM    3  C   LIG     1      15.881  31.562  13.530  1.00  0.00     0.147 A 
HETATM    4  N   LIG     1      16.886  32.335  13.049  1.00  0.00    -0.075 NA
HETATM    5  C   LIG     1      17.532  33.219  13.847  1.00  0.00     0.721 A 
HETATM    6  N   LIG     1      17.195  33.318  15.157  1.00  0.00    -0.045 NA
HETATM    7  C   LIG     1      16.201  32.565  15.698  1.00  0.00     0.148 A 
BRANCH   5   8
HETATM    8  N   LIG     1      18.581  34.027  13.317  1.00  0.00    -0.231 N 
HETATM    9  H   LIG     1      19.489  33.596  13.034  1.00  0.00     0.174 HD
HETATM   10  H   LIG     1      18.449  35.056  13.206  1.00  0.00     0.174 HD
ENDBRANCH   5   8
BRANCH   7  11
HETATM   11  N   LIG     1      15.952  32.677  17.104  1.00  0.00    -0.383 N 
HETATM   12  H   LIG     1      15.160  32.146  17.530  1.00  0.00     0.157 HD
HETATM   13  H   LIG     1      16.446  33.365  17.712  1.00  0.00     0.157 HD
ENDBRANCH   7  11
ENDBRANCH   1   2
BRANCH   1  14
HETATM   14  C   LIG     1      14.089  29.585  14.575  1.00  0.00    -0.048 A 
HETATM   15  C   LIG     1      15.167  28.801  14.157  1.00  0.00     0.047 A 
HETATM   16  C   LIG     1      14.964  27.638  13.392  1.00  0.00     0.104 A 
HETATM   17  C   LIG     1      13.642  27.257  13.032  1.00  0.00     0.135 A 
HETATM   18  C   LIG     1      12.551  28.063  13.458  1.00  0.00     0.104 A 
HETATM   19  C   LIG     1      12.792  29.210  14.219  1.00  0.00     0.047 A 
BRANCH  16  20
HETATM   20  O   LIG     1      16.058  26.855  12.983  1.00  0.00    -0.353 OA
HETATM   21  C   LIG     1      16.561  26.779  11.653  1.00  0.00     0.210 C 
ENDBRANCH  16  20
BRANCH  17  22
HETATM   22  O   LIG     1      13.365  26.108  12.268  1.00  0.00    -0.351 OA
HETATM   23  C   LIG     1      13.101  26.044  10.870  1.00  0.00     0.210 C 
ENDBRANCH  17  22
BRANCH  18  24
HETATM   24  O   LIG     1      11.201  27.788  13.164  1.00  0.00    -0.353 OA
HETATM   25  C   LIG     1      10.155  28.738  12.991  1.00  0.00     0.210 C 
ENDBRANCH  18  24
ENDBRANCH   1  14
TORSDOF 7
ENDMDL
MODEL 7
REMARK VINA RESULT:      -5.9      4.083      6.502
REMARK  7 active torsions:
REMARK  status: ('A' for Active; 'I' for Inactive)
REMARK    1  A    between atoms: N_1  and  C_2 
REMARK    2  A    between atoms: C_5  and  C_6 
REMARK    3  A    between atoms: C_6  and  C_7 
REMARK    4  A    between atoms: C_9  and  O_10 
REMARK    5  A    between atoms: C_12  and  O_13 
REMARK    6  A    between atoms: C_15  and  O_16 
REMARK    7  A    between atoms: C_19  and  N_20 
ROOT
HETATM    1  C   LIG     1      15.935  35.447  21.560  1.00  0.00     0.082 C 
ENDROOT
BRANCH   1   2
HETATM    2  C   LIG     1      16.935  36.544  21.235  1.00  0.00     0.010 A 
HETATM    3  C   LIG     1      17.978  36.311  20.318  1.00  0.00     0.147 A 
HETATM    4  N   LIG     1      18.862  37.293  20.016  1.00  0.00    -0.075 NA
HETATM    5  C   LIG     1      18.781  38.512  20.604  1.00  0.00     0.721 A 
HETATM    6  N   LIG     1      17.822  38.752  21.532  1.00  0.00    -0.045 NA
HETATM    7  C   LIG     1      16.912  37.804  21.881  1.00  0.00     0.148 A 
BRANCH   5   8
HETATM    8  N   LIG     1      19.717  39.533  20.265  1.00  0.00    -0.231 N 
HETATM    9  H   LIG     1      20.486  39.787  20.925  1.00  0.00     0.174 HD
HETATM   10  H   LIG     1      19.645  40.034  19.352  1.00  0.00     0.174 HD
ENDBRANCH   5   8
BRANCH   7  11
HETATM   11  N   LIG     1      15.974  38.112  22.919  1.00  0.00    -0.383 N 
HETATM   12  H   LIG     1      15.058  37.613  22.949  1.00  0.00     0.157 HD
HETATM   13  H   LIG     1      16.107  38.906  23.582  1.00  0.00     0.157 HD
ENDBRANCH   7  11
ENDBRANCH   1   2
BRANCH   1  14
HETATM   14  C   LIG     1      15.649  34.546  20.382  1.00  0.00    -0.048 A 
HETATM   15  C   LIG     1      15.251  33.223  20.593  1.00  0.00     0.047 A 
HETATM   16  C   LIG     1      14.971  32.368  19.510  1.00  0.00     0.104 A 
HETATM   17  C   LIG     1      15.101  32.857  18.181  1.00  0.00     0.135 A 
HETATM   18  C   LIG     1      15.510  34.202  17.975  1.00  0.00     0.104 A 
HETATM   19  C   LIG     1      15.777  35.021  19.075  1.00  0.00     0.047 A 
BRANCH  16  20
HETATM   20  O   LIG     1      14.566  31.042  19.738  1.00  0.00    -0.353 OA
HETATM   21  C   LIG     1      14.853  30.286  20.910  1.00  0.00     0.210 C 
ENDBRANCH  16  20
BRANCH  17  22
HETATM   22  O   LIG     1      14.838  32.058  17.052  1.00  0.00    -0.351 OA
HETATM   23  C   LIG     1      13.566  31.666  16.549  1.00  0.00     0.210 C 
ENDBRANCH  17  22
BRANCH  18  24
HETATM   24  O   LIG     1      15.673  34.796  16.708  1.00  0.00    -0.353 OA
HETATM   25  C   LIG     1      16.589  34.401  15.693  1.00  0.00     0.210 C 
ENDBRANCH  18  24
ENDBRANCH   1  14
TORSDOF 7
ENDMDL
MODEL 8
REMARK VINA RESULT:      -5.9      7.891     10.976
REMARK  7 active torsions:
REMARK  status: ('A' for Active; 'I' for Inactive)
REMARK    1  A    between atoms: N_1  and  C_2 
REMARK    2  A    between atoms: C_5  and  C_6 
REMARK    3  A    between atoms: C_6  and  C_7 
REMARK    4  A    between atoms: C_9  and  O_10 
REMARK    5  A    between atoms: C_12  and  O_13 
REMARK    6  A    between atoms: C_15  and  O_16 
REMARK    7  A    between atoms: C_19  and  N_20 
ROOT
HETATM    1  C   LIG     1      14.352  30.899  15.406  1.00  0.00     0.082 C 
ENDROOT
BRANCH   1   2
HETATM    2  C   LIG     1      15.503  31.728  14.862  1.00  0.00     0.010 A 
HETATM    3  C   LIG     1      15.937  31.561  13.533  1.00  0.00     0.147 A 
HETATM    4  N   LIG     1      16.955  32.310  13.042  1.00  0.00    -0.075 NA
HETATM    5  C   LIG     1      17.595  33.217  13.820  1.00  0.00     0.721 A 
HETATM    6  N   LIG     1      17.238  33.364  15.120  1.00  0.00    -0.045 NA
HETATM    7  C   LIG     1      16.229  32.636  15.671  1.00  0.00     0.148 A 
BRANCH   5   8
HETATM    8  N   LIG     1      18.658  34.000  13.280  1.00  0.00    -0.231 N 
HETATM    9  H   LIG     1      19.572  33.556  13.040  1.00  0.00     0.174 HD
HETATM   10  H   LIG     1      18.530  35.023  13.117  1.00  0.00     0.174 HD
ENDBRANCH   5   8
BRANCH   7  11
HETATM   11  N   LIG     1      15.959  32.799  17.067  1.00  0.00    -0.383 N 
HETATM   12  H   LIG     1      15.173  32.268  17.504  1.00  0.00     0.157 HD
HETATM   13  H   LIG     1      16.430  33.521  17.653  1.00  0.00     0.157 HD
ENDBRANCH   7  11
ENDBRANCH   1   2
BRANCH   1  14
HETATM   14  C   LIG     1      14.095  29.649  14.598  1.00  0.00    -0.048 A 
HETATM   15  C   LIG     1      12.787  29.286  14.266  1.00  0.00     0.047 A 
HETATM   16  C   LIG     1      12.525  28.131  13.507  1.00  0.00     0.104 A 
HETATM   17  C   LIG     1      13.608  27.315  13.076  1.00  0.00     0.135 A 
HETATM   18  C   LIG     1      14.935  27.689  13.422  1.00  0.00     0.104 A 
HETATM   19  C   LIG     1      15.156  28.845  14.175  1.00  0.00     0.047 A 
BRANCH  16  20
HETATM   20  O   LIG     1      11.205  27.781  13.175  1.00  0.00    -0.353 OA
HETATM   21  C   LIG     1      10.137  28.703  12.979  1.00  0.00     0.210 C 
ENDBRANCH  16  20
BRANCH  17  22
HETATM   22  O   LIG     1      13.420  26.146  12.316  1.00  0.00    -0.351 OA
HETATM   23  C   LIG     1      13.093  26.058  10.933  1.00  0.00     0.210 C 
ENDBRANCH  17  22
BRANCH  18  24
HETATM   24  O   LIG     1      16.084  26.963  13.053  1.00  0.00    -0.353 OA
HETATM   25  C   LIG     1      16.591  26.779  11.736  1.00  0.00     0.210 C 
ENDBRANCH  18  24
ENDBRANCH   1  14
TORSDOF 7
ENDMDL
MODEL 9
REMARK VINA RESULT:      -5.4      1.511      2.880
REMARK  7 active torsions:
REMARK  status: ('A' for Active; 'I' for Inactive)
REMARK    1  A    between atoms: N_1  and  C_2 
REMARK    2  A    between atoms: C_5  and  C_6 
REMARK    3  A    between atoms: C_6  and  C_7 
REMARK    4  A    between atoms: C_9  and  O_10 
REMARK    5  A    between atoms: C_12  and  O_13 
REMARK    6  A    between atoms: C_15  and  O_16 
REMARK    7  A    between atoms: C_19  and  N_20 
ROOT
HETATM    1  C   LIG     1      14.763  33.935  21.243  1.00  0.00     0.082 C 
ENDROOT
BRANCH   1   2
HETATM    2  C   LIG     1      15.156  33.815  19.781  1.00  0.00     0.010 A 
HETATM    3  C   LIG     1      15.529  34.957  19.047  1.00  0.00     0.147 A 
HETATM    4  N   LIG     1      15.894  34.850  17.745  1.00  0.00    -0.075 NA
HETATM    5  C   LIG     1      15.885  33.651  17.112  1.00  0.00     0.721 A 
HETATM    6  N   LIG     1      15.478  32.540  17.775  1.00  0.00    -0.045 NA
HETATM    7  C   LIG     1      15.095  32.587  19.079  1.00  0.00     0.148 A 
BRANCH   5   8
HETATM    8  N   LIG     1      16.280  33.562  15.745  1.00  0.00    -0.231 N 
HETATM    9  H   LIG     1      15.685  33.051  15.055  1.00  0.00     0.174 HD
HETATM   10  H   LIG     1      17.166  34.007  15.421  1.00  0.00     0.174 HD
ENDBRANCH   5   8
BRANCH   7  11
HETATM   11  N   LIG     1      14.612  31.384  19.688  1.00  0.00    -0.383 N 
HETATM   12  H   LIG     1      15.132  30.971  20.494  1.00  0.00     0.157 HD
HETATM   13  H   LIG     1      13.831  30.822  19.287  1.00  0.00     0.157 HD
ENDBRANCH   7  11
ENDBRANCH   1   2
BRANCH   1  14
HETATM   14  C   LIG     1      15.635  34.903  22.009  1.00  0.00    -0.048 A 
HETATM   15  C   LIG     1      15.735  36.233  21.595  1.00  0.00     0.047 A 
HETATM   16  C   LIG     1      16.534  37.154  22.297  1.00  0.00     0.104 A 
HETATM   17  C   LIG     1      17.257  36.722  23.444  1.00  0.00     0.135 A 
HETATM   18  C   LIG     1      17.153  35.366  23.856  1.00  0.00     0.104 A 
HETATM   19  C   LIG     1      16.348  34.481  23.133  1.00  0.00     0.047 A 
BRANCH  16  20
HETATM   20  O   LIG     1      16.620  38.491  21.873  1.00  0.00    -0.353 OA
HETATM   21  C   LIG     1      17.808  39.134  21.422  1.00  0.00     0.210 C 
ENDBRANCH  16  20
BRANCH  17  22
HETATM   22  O   LIG     1      18.076  37.587  24.193  1.00  0.00    -0.351 OA
HETATM   23  C   LIG     1      17.697  38.381  25.313  1.00  0.00     0.210 C 
ENDBRANCH  17  22
BRANCH  18  24
HETATM   24  O   LIG     1      17.820  34.824  24.972  1.00  0.00    -0.353 OA
HETATM   25  C   LIG     1      17.372  34.837  26.323  1.00  0.00     0.210 C 
ENDBRANCH  18  24
ENDBRANCH   1  14
TORSDOF 7
ENDMDL
MODEL 10
REMARK VINA RESULT:      -5.2      4.377      7.717
REMARK  7 active torsions:
REMARK  status: ('A' for Active; 'I' for Inactive)
REMARK    1  A    between atoms: N_1  and  C_2 
REMARK    2  A    between atoms: C_5  and  C_6 
REMARK    3  A    between atoms: C_6  and  C_7 
REMARK    4  A    between atoms: C_9  and  O_10 
REMARK    5  A    between atoms: C_12  and  O_13 
REMARK    6  A    between atoms: C_15  and  O_16 
REMARK    7  A    between atoms: C_19  and  N_20 
ROOT
HETATM    1  C   LIG     1      14.174  32.118  17.412  1.00  0.00     0.082 C 
ENDROOT
BRANCH   1   2
HETATM    2  C   LIG     1      14.807  32.927  18.531  1.00  0.00     0.010 A 
HETATM    3  C   LIG     1      15.241  34.246  18.300  1.00  0.00     0.147 A 
HETATM    4  N   LIG     1      15.793  34.975  19.302  1.00  0.00    -0.075 NA
HETATM    5  C   LIG     1      15.964  34.446  20.539  1.00  0.00     0.721 A 
HETATM    6  N   LIG     1      15.607  33.160  20.779  1.00  0.00    -0.045 NA
HETATM    7  C   LIG     1      15.055  32.379  19.813  1.00  0.00     0.148 A 
BRANCH   5   8
HETATM    8  N   LIG     1      16.540  35.234  21.579  1.00  0.00    -0.231 N 
HETATM    9  H   LIG     1      16.772  34.803  22.502  1.00  0.00     0.174 HD
HETATM   10  H   LIG     1      16.737  36.247  21.427  1.00  0.00     0.174 HD
ENDBRANCH   5   8
BRANCH   7  11
HETATM   11  N   LIG     1      14.770  31.011  20.126  1.00  0.00    -0.383 N 
HETATM   12  H   LIG     1      15.508  30.421  20.571  1.00  0.00     0.157 HD
HETATM   13  H   LIG     1      13.898  30.531  19.817  1.00  0.00     0.157 HD
ENDBRANCH   7  11
ENDBRANCH   1   2
BRANCH   1  14
HETATM   14  C   LIG     1      15.007  32.105  16.151  1.00  0.00    -0.048 A 
HETATM   15  C   LIG     1      14.931  31.022  15.272  1.00  0.00     0.047 A 
HETATM   16  C   LIG     1      15.693  30.993  14.089  1.00  0.00     0.104 A 
HETATM   17  C   LIG     1      16.557  32.081  13.786  1.00  0.00     0.135 A 
HETATM   18  C   LIG     1      16.631  33.178  14.687  1.00  0.00     0.104 A 
HETATM   19  C   LIG     1      15.859  33.171  15.852  1.00  0.00     0.047 A 
BRANCH  16  20
HETATM   20  O   LIG     1      15.602  29.900  13.211  1.00  0.00    -0.353 OA
HETATM   21  C   LIG     1      15.299  28.562  13.595  1.00  0.00     0.210 C 
ENDBRANCH  16  20
BRANCH  17  22
HETATM   22  O   LIG     1      17.348  32.119  12.622  1.00  0.00    -0.351 OA
HETATM   23  C   LIG     1      18.359  33.067  12.295  1.00  0.00     0.210 C 
ENDBRANCH  17  22
BRANCH  18  24
HETATM   24  O   LIG     1      17.449  34.308  14.494  1.00  0.00    -0.353 OA
HETATM   25  C   LIG     1      17.392  35.535  15.214  1.00  0.00     0.210 C 
ENDBRANCH  18  24
ENDBRANCH   1  14
TORSDOF 7
ENDMDL
MODEL 11
REMARK VINA RESULT:      -5.1      1.525      2.080
REMARK  7 active torsions:
REMARK  status: ('A' for Active; 'I' for Inactive)
REMARK    1  A    between atoms: N_1  and  C_2 
REMARK    2  A    between atoms: C_5  and  C_6 
REMARK    3  A    between atoms: C_6  and  C_7 
REMARK    4  A    between atoms: C_9  and  O_10 
REMARK    5  A    between atoms: C_12  and  O_13 
REMARK    6  A    between atoms: C_15  and  O_16 
REMARK    7  A    between atoms: C_19  and  N_20 
ROOT
HETATM    1  C   LIG     1      14.744  33.964  21.215  1.00  0.00     0.082 C 
ENDROOT
BRANCH   1   2
HETATM    2  C   LIG     1      15.154  33.836  19.758  1.00  0.00     0.010 A 
HETATM    3  C   LIG     1      15.537  34.973  19.022  1.00  0.00     0.147 A 
HETATM    4  N   LIG     1      15.918  34.859  17.725  1.00  0.00    -0.075 NA
HETATM    5  C   LIG     1      15.915  33.656  17.099  1.00  0.00     0.721 A 
HETATM    6  N   LIG     1      15.498  32.549  17.764  1.00  0.00    -0.045 NA
HETATM    7  C   LIG     1      15.099  32.604  19.063  1.00  0.00     0.148 A 
BRANCH   5   8
HETATM    8  N   LIG     1      16.326  33.558  15.737  1.00  0.00    -0.231 N 
HETATM    9  H   LIG     1      16.659  32.647  15.349  1.00  0.00     0.174 HD
HETATM   10  H   LIG     1      16.297  34.395  15.115  1.00  0.00     0.174 HD
ENDBRANCH   5   8
BRANCH   7  11
HETATM   11  N   LIG     1      14.608  31.405  19.672  1.00  0.00    -0.383 N 
HETATM   12  H   LIG     1      13.773  30.927  19.266  1.00  0.00     0.157 HD
HETATM   13  H   LIG     1      14.966  31.048  20.584  1.00  0.00     0.157 HD
ENDBRANCH   7  11
ENDBRANCH   1   2
BRANCH   1  14
HETATM   14  C   LIG     1      15.634  34.904  21.996  1.00  0.00    -0.048 A 
HETATM   15  C   LIG     1      16.311  34.446  23.128  1.00  0.00     0.047 A 
HETATM   16  C   LIG     1      17.152  35.301  23.865  1.00  0.00     0.104 A 
HETATM   17  C   LIG     1      17.309  36.654  23.454  1.00  0.00     0.135 A 
HETATM   18  C   LIG     1      16.613  37.112  22.303  1.00  0.00     0.104 A 
HETATM   19  C   LIG     1      15.789  36.232  21.595  1.00  0.00     0.047 A 
BRANCH  16  20
HETATM   20  O   LIG     1      17.832  34.826  24.999  1.00  0.00    -0.353 OA
HETATM   21  C   LIG     1      17.307  34.810  26.324  1.00  0.00     0.210 C 
ENDBRANCH  16  20
BRANCH  17  22
HETATM   22  O   LIG     1      18.132  37.564  24.143  1.00  0.00    -0.351 OA
HETATM   23  C   LIG     1      17.784  38.360  25.272  1.00  0.00     0.210 C 
ENDBRANCH  17  22
BRANCH  18  24
HETATM   24  O   LIG     1      16.691  38.426  21.800  1.00  0.00    -0.353 OA
HETATM   25  C   LIG     1      17.844  39.070  21.271  1.00  0.00     0.210 C 
ENDBRANCH  18  24
ENDBRANCH   1  14
TORSDOF 7
ENDMDL
MODEL 12
REMARK VINA RESULT:      -5.0      4.392      7.632
REMARK  7 active torsions:
REMARK  status: ('A' for Active; 'I' for Inactive)
REMARK    1  A    between atoms: N_1  and  C_2 
REMARK    2  A    between atoms: C_5  and  C_6 
REMARK    3  A    between atoms: C_6  and  C_7 
REMARK    4  A    between atoms: C_9  and  O_10 
REMARK    5  A    between atoms: C_12  and  O_13 
REMARK    6  A    between atoms: C_15  and  O_16 
REMARK    7  A    between atoms: C_19  and  N_20 
ROOT
HETATM    1  C   LIG     1      14.190  32.114  17.399  1.00  0.00     0.082 C 
ENDROOT
BRANCH   1   2
HETATM    2  C   LIG     1      14.811  32.923  18.526  1.00  0.00     0.010 A 
HETATM    3  C   LIG     1      15.260  34.237  18.298  1.00  0.00     0.147 A 
HETATM    4  N   LIG     1      15.801  34.965  19.306  1.00  0.00    -0.075 NA
HETATM    5  C   LIG     1      15.946  34.440  20.548  1.00  0.00     0.721 A 
HETATM    6  N   LIG     1      15.573  33.158  20.787  1.00  0.00    -0.045 NA
HETATM    7  C   LIG     1      15.031  32.378  19.815  1.00  0.00     0.148 A 
BRANCH   5   8
HETATM    8  N   LIG     1      16.510  35.227  21.595  1.00  0.00    -0.231 N 
HETATM    9  H   LIG     1      17.402  35.748  21.442  1.00  0.00     0.174 HD
HETATM   10  H   LIG     1      16.036  35.291  22.522  1.00  0.00     0.174 HD
ENDBRANCH   5   8
BRANCH   7  11
HETATM   11  N   LIG     1      14.729  31.014  20.128  1.00  0.00    -0.383 N 
HETATM   12  H   LIG     1      15.211  30.552  20.932  1.00  0.00     0.157 HD
HETATM   13  H   LIG     1      14.140  30.410  19.515  1.00  0.00     0.157 HD
ENDBRANCH   7  11
ENDBRANCH   1   2
BRANCH   1  14
HETATM   14  C   LIG     1      15.023  32.128  16.138  1.00  0.00    -0.048 A 
HETATM   15  C   LIG     1      15.842  33.222  15.853  1.00  0.00     0.047 A 
HETATM   16  C   LIG     1      16.632  33.252  14.688  1.00  0.00     0.104 A 
HETATM   17  C   LIG     1      16.591  32.153  13.786  1.00  0.00     0.135 A 
HETATM   18  C   LIG     1      15.752  31.046  14.082  1.00  0.00     0.104 A 
HETATM   19  C   LIG     1      14.983  31.051  15.250  1.00  0.00     0.047 A 
BRANCH  16  20
HETATM   20  O   LIG     1      17.457  34.356  14.416  1.00  0.00    -0.353 OA
HETATM   21  C   LIG     1      17.450  35.583  15.139  1.00  0.00     0.210 C 
ENDBRANCH  16  20
BRANCH  17  22
HETATM   22  O   LIG     1      17.353  32.116  12.603  1.00  0.00    -0.351 OA
HETATM   23  C   LIG     1      18.421  32.983  12.236  1.00  0.00     0.210 C 
ENDBRANCH  17  22
BRANCH  18  24
HETATM   24  O   LIG     1      15.628  29.904  13.266  1.00  0.00    -0.353 OA
HETATM   25  C   LIG     1      15.263  28.593  13.684  1.00  0.00     0.210 C 
ENDBRANCH  18  24
ENDBRANCH   1  14
TORSDOF 7
ENDMDL
MODEL 13
REMARK VINA RESULT:      -4.7     18.675     20.686
REMARK  7 active torsions:
REMARK  status: ('A' for Active; 'I' for Inactive)
REMARK    1  A    between atoms: N_1  and  C_2 
REMARK    2  A    between atoms: C_5  and  C_6 
REMARK    3  A    between atoms: C_6  and  C_7 
REMARK    4  A    between atoms: C_9  and  O_10 
REMARK    5  A    between atoms: C_12  and  O_13 
REMARK    6  A    between atoms: C_15  and  O_16 
REMARK    7  A    between atoms: C_19  and  N_20 
ROOT
HETATM    1  C   LIG     1      26.204  29.806  34.769  1.00  0.00     0.082 C 
ENDROOT
BRANCH   1   2
HETATM    2  C   LIG     1      27.220  30.520  35.644  1.00  0.00     0.010 A 
HETATM    3  C   LIG     1      28.493  30.845  35.140  1.00  0.00     0.147 A 
HETATM    4  N   LIG     1      29.396  31.496  35.915  1.00  0.00    -0.075 NA
HETATM    5  C   LIG     1      29.107  31.826  37.198  1.00  0.00     0.721 A 
HETATM    6  N   LIG     1      27.909  31.479  37.731  1.00  0.00    -0.045 NA
HETATM    7  C   LIG     1      26.967  30.820  37.005  1.00  0.00     0.148 A 
BRANCH   5   8
HETATM    8  N   LIG     1      30.069  32.518  37.992  1.00  0.00    -0.231 N 
HETATM    9  H   LIG     1      29.840  32.803  38.970  1.00  0.00     0.174 HD
HETATM   10  H   LIG     1      31.011  32.743  37.603  1.00  0.00     0.174 HD
ENDBRANCH   5   8
BRANCH   7  11
HETATM   11  N   LIG     1      25.756  30.428  37.661  1.00  0.00    -0.383 N 
HETATM   12  H   LIG     1      24.860  30.903  37.414  1.00  0.00     0.157 HD
HETATM   13  H   LIG     1      25.740  29.771  38.470  1.00  0.00     0.157 HD
ENDBRANCH   7  11
ENDBRANCH   1   2
BRANCH   1  14
HETATM   14  C   LIG     1      26.617  28.394  34.422  1.00  0.00    -0.048 A 
HETATM   15  C   LIG     1      27.050  27.524  35.426  1.00  0.00     0.047 A 
HETATM   16  C   LIG     1      27.431  26.203  35.127  1.00  0.00     0.104 A 
HETATM   17  C   LIG     1      27.381  25.748  33.780  1.00  0.00     0.135 A 
HETATM   18  C   LIG     1      26.943  26.640  32.765  1.00  0.00     0.104 A 
HETATM   19  C   LIG     1      26.571  27.945  33.101  1.00  0.00     0.047 A 
BRANCH  16  20
HETATM   20  O   LIG     1      27.859  25.338  36.148  1.00  0.00    -0.353 OA
HETATM   21  C   LIG     1      27.007  24.704  37.097  1.00  0.00     0.210 C 
ENDBRANCH  16  20
BRANCH  17  22
HETATM   22  O   LIG     1      27.748  24.441  33.408  1.00  0.00    -0.351 OA
HETATM   23  C   LIG     1      29.037  23.986  33.011  1.00  0.00     0.210 C 
ENDBRANCH  17  22
BRANCH  18  24
HETATM   24  O   LIG     1      26.851  26.304  31.400  1.00  0.00    -0.353 OA
HETATM   25  C   LIG     1      27.226  27.117  30.294  1.00  0.00     0.210 C 
ENDBRANCH  18  24
ENDBRANCH   1  14
TORSDOF 7
ENDMDL
MODEL 14
REMARK VINA RESULT:      -4.7      4.343      6.666
REMARK  7 active torsions:
REMARK  status: ('A' for Active; 'I' for Inactive)
REMARK    1  A    between atoms: N_1  and  C_2 
REMARK    2  A    between atoms: C_5  and  C_6 
REMARK    3  A    between atoms: C_6  and  C_7 
REMARK    4  A    between atoms: C_9  and  O_10 
REMARK    5  A    between atoms: C_12  and  O_13 
REMARK    6  A    between atoms: C_15  and  O_16 
REMARK    7  A    between atoms: C_19  and  N_20 
ROOT
HETATM    1  C   LIG     1      16.333  37.411  23.286  1.00  0.00     0.082 C 
ENDROOT
BRANCH   1   2
HETATM    2  C   LIG     1      17.070  36.739  24.432  1.00  0.00     0.010 A 
HETATM    3  C   LIG     1      17.224  35.340  24.458  1.00  0.00     0.147 A 
HETATM    4  N   LIG     1      17.894  34.740  25.473  1.00  0.00    -0.075 NA
HETATM    5  C   LIG     1      18.408  35.466  26.497  1.00  0.00     0.721 A 
HETATM    6  N   LIG     1      18.229  36.810  26.530  1.00  0.00    -0.045 NA
HETATM    7  C   LIG     1      17.560  37.466  25.544  1.00  0.00     0.148 A 
BRANCH   5   8
HETATM    8  N   LIG     1      19.116  34.814  27.550  1.00  0.00    -0.231 N 
HETATM    9  H   LIG     1      18.755  33.924  27.958  1.00  0.00     0.174 HD
HETATM   10  H   LIG     1      20.003  35.220  27.920  1.00  0.00     0.174 HD
ENDBRANCH   5   8
BRANCH   7  11
HETATM   11  N   LIG     1      17.353  38.875  25.686  1.00  0.00    -0.383 N 
HETATM   12  H   LIG     1      17.821  39.388  26.466  1.00  0.00     0.157 HD
HETATM   13  H   LIG     1      16.653  39.403  25.122  1.00  0.00     0.157 HD
ENDBRANCH   7  11
ENDBRANCH   1   2
BRANCH   1  14
HETATM   14  C   LIG     1      16.246  36.541  22.053  1.00  0.00    -0.048 A 
HETATM   15  C   LIG     1      15.372  35.453  22.024  1.00  0.00     0.047 A 
HETATM   16  C   LIG     1      15.269  34.634  20.884  1.00  0.00     0.104 A 
HETATM   17  C   LIG     1      16.073  34.917  19.744  1.00  0.00     0.135 A 
HETATM   18  C   LIG     1      16.963  36.024  19.783  1.00  0.00     0.104 A 
HETATM   19  C   LIG     1      17.035  36.815  20.934  1.00  0.00     0.047 A 
BRANCH  16  20
HETATM   20  O   LIG     1      14.381  33.546  20.866  1.00  0.00    -0.353 OA
HETATM   21  C   LIG     1      14.716  32.220  20.469  1.00  0.00     0.210 C 
ENDBRANCH  16  20
BRANCH  17  22
HETATM   22  O   LIG     1      16.023  34.141  18.571  1.00  0.00    -0.351 OA
HETATM   23  C   LIG     1      15.159  34.321  17.453  1.00  0.00     0.210 C 
ENDBRANCH  17  22
BRANCH  18  24
HETATM   24  O   LIG     1      17.806  36.401  18.720  1.00  0.00    -0.353 OA
HETATM   25  C   LIG     1      18.746  37.470  18.714  1.00  0.00     0.210 C 
ENDBRANCH  18  24
ENDBRANCH   1  14
TORSDOF 7
ENDMDL
MODEL 15
REMARK VINA RESULT:      -4.6     15.248     16.723
REMARK  7 active torsions:
REMARK  status: ('A' for Active; 'I' for Inactive)
REMARK    1  A    between atoms: N_1  and  C_2 
REMARK    2  A    between atoms: C_5  and  C_6 
REMARK    3  A    between atoms: C_6  and  C_7 
REMARK    4  A    between atoms: C_9  and  O_10 
REMARK    5  A    between atoms: C_12  and  O_13 
REMARK    6  A    between atoms: C_15  and  O_16 
REMARK    7  A    between atoms: C_19  and  N_20 
ROOT
HETATM    1  C   LIG     1      22.749  22.321  20.526  1.00  0.00     0.082 C 
ENDROOT
BRANCH   1   2
HETATM    2  C   LIG     1      23.478  21.541  19.444  1.00  0.00     0.010 A 
HETATM    3  C   LIG     1      23.036  20.258  19.069  1.00  0.00     0.147 A 
HETATM    4  N   LIG     1      23.676  19.567  18.093  1.00  0.00    -0.075 NA
HETATM    5  C   LIG     1      24.767  20.081  17.473  1.00  0.00     0.721 A 
HETATM    6  N   LIG     1      25.251  21.291  17.849  1.00  0.00    -0.045 NA
HETATM    7  C   LIG     1      24.656  22.026  18.826  1.00  0.00     0.148 A 
BRANCH   5   8
HETATM    8  N   LIG     1      25.420  19.339  16.444  1.00  0.00    -0.231 N 
HETATM    9  H   LIG     1      26.406  19.018  16.568  1.00  0.00     0.174 HD
HETATM   10  H   LIG     1      24.917  19.110  15.559  1.00  0.00     0.174 HD
ENDBRANCH   5   8
BRANCH   7  11
HETATM   11  N   LIG     1      25.267  23.262  19.213  1.00  0.00    -0.383 N 
HETATM   12  H   LIG     1      26.309  23.339  19.221  1.00  0.00     0.157 HD
HETATM   13  H   LIG     1      24.727  24.059  19.612  1.00  0.00     0.157 HD
ENDBRANCH   7  11
ENDBRANCH   1   2
BRANCH   1  14
HETATM   14  C   LIG     1      23.235  21.987  21.918  1.00  0.00    -0.048 A 
HETATM   15  C   LIG     1      24.218  22.773  22.523  1.00  0.00     0.047 A 
HETATM   16  C   LIG     1      24.679  22.486  23.821  1.00  0.00     0.104 A 
HETATM   17  C   LIG     1      24.139  21.374  24.526  1.00  0.00     0.135 A 
HETATM   18  C   LIG     1      23.141  20.578  23.901  1.00  0.00     0.104 A 
HETATM   19  C   LIG     1      22.708  20.895  22.611  1.00  0.00     0.047 A 
BRANCH  16  20
HETATM   20  O   LIG     1      25.664  23.288  24.420  1.00  0.00    -0.353 OA
HETATM   21  C   LIG     1      27.047  23.283  24.078  1.00  0.00     0.210 C 
ENDBRANCH  16  20
BRANCH  17  22
HETATM   22  O   LIG     1      24.553  21.028  25.826  1.00  0.00    -0.351 OA
HETATM   23  C   LIG     1      24.040  21.527  27.057  1.00  0.00     0.210 C 
ENDBRANCH  17  22
BRANCH  18  24
HETATM   24  O   LIG     1      22.535  19.455  24.498  1.00  0.00    -0.353 OA
HETATM   25  C   LIG     1      21.953  18.343  23.828  1.00  0.00     0.210 C 
ENDBRANCH  18  24
ENDBRANCH   1  14
TORSDOF 7
ENDMDL
MODEL 16
REMARK VINA RESULT:      -4.6     15.254     16.674
REMARK  7 active torsions:
REMARK  status: ('A' for Active; 'I' for Inactive)
REMARK    1  A    between atoms: N_1  and  C_2 
REMARK    2  A    between atoms: C_5  and  C_6 
REMARK    3  A    between atoms: C_6  and  C_7 
REMARK    4  A    between atoms: C_9  and  O_10 
REMARK    5  A    between atoms: C_12  and  O_13 
REMARK    6  A    between atoms: C_15  and  O_16 
REMARK    7  A    between atoms: C_19  and  N_20 
ROOT
HETATM    1  C   LIG     1      22.769  22.370  20.653  1.00  0.00     0.082 C 
ENDROOT
BRANCH   1   2
HETATM    2  C   LIG     1      23.493  21.615  19.552  1.00  0.00     0.010 A 
HETATM    3  C   LIG     1      23.054  20.338  19.155  1.00  0.00     0.147 A 
HETATM    4  N   LIG     1      23.690  19.668  18.162  1.00  0.00    -0.075 NA
HETATM    5  C   LIG     1      24.775  20.197  17.545  1.00  0.00     0.721 A 
HETATM    6  N   LIG     1      25.257  21.402  17.942  1.00  0.00    -0.045 NA
HETATM    7  C   LIG     1      24.666  22.116  18.936  1.00  0.00     0.148 A 
BRANCH   5   8
HETATM    8  N   LIG     1      25.424  19.479  16.498  1.00  0.00    -0.231 N 
HETATM    9  H   LIG     1      24.997  18.607  16.112  1.00  0.00     0.174 HD
HETATM   10  H   LIG     1      26.329  19.818  16.106  1.00  0.00     0.174 HD
ENDBRANCH   5   8
BRANCH   7  11
HETATM   11  N   LIG     1      25.276  23.346  19.344  1.00  0.00    -0.383 N 
HETATM   12  H   LIG     1      24.950  23.816  20.217  1.00  0.00     0.157 HD
HETATM   13  H   LIG     1      25.949  23.868  18.743  1.00  0.00     0.157 HD
ENDBRANCH   7  11
ENDBRANCH   1   2
BRANCH   1  14
HETATM   14  C   LIG     1      23.264  22.011  22.036  1.00  0.00    -0.048 A 
HETATM   15  C   LIG     1      22.741  20.899  22.699  1.00  0.00     0.047 A 
HETATM   16  C   LIG     1      23.193  20.541  23.983  1.00  0.00     0.104 A 
HETATM   17  C   LIG     1      24.194  21.328  24.617  1.00  0.00     0.135 A 
HETATM   18  C   LIG     1      24.718  22.460  23.937  1.00  0.00     0.104 A 
HETATM   19  C   LIG     1      24.245  22.783  22.661  1.00  0.00     0.047 A 
BRANCH  16  20
HETATM   20  O   LIG     1      22.662  19.416  24.636  1.00  0.00    -0.353 OA
HETATM   21  C   LIG     1      21.718  18.511  24.074  1.00  0.00     0.210 C 
ENDBRANCH  16  20
BRANCH  17  22
HETATM   22  O   LIG     1      24.692  21.030  25.900  1.00  0.00    -0.351 OA
HETATM   23  C   LIG     1      24.223  21.533  27.146  1.00  0.00     0.210 C 
ENDBRANCH  17  22
BRANCH  18  24
HETATM   24  O   LIG     1      25.709  23.312  24.462  1.00  0.00    -0.353 OA
HETATM   25  C   LIG     1      27.118  23.178  24.309  1.00  0.00     0.210 C 
ENDBRANCH  18  24
ENDBRANCH   1  14
TORSDOF 7
ENDMDL
MODEL 17
REMARK VINA RESULT:      -4.6     15.015     15.788
REMARK  7 active torsions:
REMARK  status: ('A' for Active; 'I' for Inactive)
REMARK    1  A    between atoms: N_1  and  C_2 
REMARK    2  A    between atoms: C_5  and  C_6 
REMARK    3  A    between atoms: C_6  and  C_7 
REMARK    4  A    between atoms: C_9  and  O_10 
REMARK    5  A    between atoms: C_12  and  O_13 
REMARK    6  A    between atoms: C_15  and  O_16 
REMARK    7  A    between atoms: C_19  and  N_20 
ROOT
HETATM    1  C   LIG     1      24.256  21.611  23.793  1.00  0.00     0.082 C 
ENDROOT
BRANCH   1   2
HETATM    2  C   LIG     1      23.866  21.664  22.326  1.00  0.00     0.010 A 
HETATM    3  C   LIG     1      22.888  22.574  21.880  1.00  0.00     0.147 A 
HETATM    4  N   LIG     1      22.549  22.633  20.569  1.00  0.00    -0.075 NA
HETATM    5  C   LIG     1      23.122  21.805  19.660  1.00  0.00     0.721 A 
HETATM    6  N   LIG     1      24.027  20.880  20.066  1.00  0.00    -0.045 NA
HETATM    7  C   LIG     1      24.401  20.769  21.368  1.00  0.00     0.148 A 
BRANCH   5   8
HETATM    8  N   LIG     1      22.756  21.891  18.285  1.00  0.00    -0.231 N 
HETATM    9  H   LIG     1      21.983  21.298  17.905  1.00  0.00     0.174 HD
HETATM   10  H   LIG     1      23.254  22.547  17.645  1.00  0.00     0.174 HD
ENDBRANCH   5   8
BRANCH   7  11
HETATM   11  N   LIG     1      25.309  19.721  21.727  1.00  0.00    -0.383 N 
HETATM   12  H   LIG     1      25.223  19.264  22.661  1.00  0.00     0.157 HD
HETATM   13  H   LIG     1      26.140  19.472  21.149  1.00  0.00     0.157 HD
ENDBRANCH   7  11
ENDBRANCH   1   2
BRANCH   1  14
HETATM   14  C   LIG     1      25.304  22.636  24.161  1.00  0.00    -0.048 A 
HETATM   15  C   LIG     1      25.228  23.307  25.383  1.00  0.00     0.047 A 
HETATM   16  C   LIG     1      26.197  24.260  25.749  1.00  0.00     0.104 A 
HETATM   17  C   LIG     1      27.268  24.548  24.858  1.00  0.00     0.135 A 
HETATM   18  C   LIG     1      27.335  23.863  23.614  1.00  0.00     0.104 A 
HETATM   19  C   LIG     1      26.354  22.922  23.286  1.00  0.00     0.047 A 
BRANCH  16  20
HETATM   20  O   LIG     1      26.112  24.923  26.985  1.00  0.00    -0.353 OA
HETATM   21  C   LIG     1      26.500  24.373  28.240  1.00  0.00     0.210 C 
ENDBRANCH  16  20
BRANCH  17  22
HETATM   22  O   LIG     1      28.271  25.488  25.157  1.00  0.00    -0.351 OA
HETATM   23  C   LIG     1      29.481  25.262  25.872  1.00  0.00     0.210 C 
ENDBRANCH  17  22
BRANCH  18  24
HETATM   24  O   LIG     1      28.345  24.064  22.653  1.00  0.00    -0.353 OA
HETATM   25  C   LIG     1      28.338  25.016  21.595  1.00  0.00     0.210 C 
ENDBRANCH  18  24
ENDBRANCH   1  14
TORSDOF 7
ENDMDL
MODEL 18
REMARK VINA RESULT:      -4.5     15.408     17.499
REMARK  7 active torsions:
REMARK  status: ('A' for Active; 'I' for Inactive)
REMARK    1  A    between atoms: N_1  and  C_2 
REMARK    2  A    between atoms: C_5  and  C_6 
REMARK    3  A    between atoms: C_6  and  C_7 
REMARK    4  A    between atoms: C_9  and  O_10 
REMARK    5  A    between atoms: C_12  and  O_13 
REMARK    6  A    between atoms: C_15  and  O_16 
REMARK    7  A    between atoms: C_19  and  N_20 
ROOT
HETATM    1  C   LIG     1      26.842  23.599  18.292  1.00  0.00     0.082 C 
ENDROOT
BRANCH   1   2
HETATM    2  C   LIG     1      27.421  24.029  19.629  1.00  0.00     0.010 A 
HETATM    3  C   LIG     1      27.944  23.074  20.521  1.00  0.00     0.147 A 
HETATM    4  N   LIG     1      28.474  23.457  21.708  1.00  0.00    -0.075 NA
HETATM    5  C   LIG     1      28.492  24.762  22.078  1.00  0.00     0.721 A 
HETATM    6  N   LIG     1      27.947  25.701  21.266  1.00  0.00    -0.045 NA
HETATM    7  C   LIG     1      27.395  25.376  20.066  1.00  0.00     0.148 A 
BRANCH   5   8
HETATM    8  N   LIG     1      29.062  25.143  23.328  1.00  0.00    -0.231 N 
HETATM    9  H   LIG     1      28.453  25.489  24.103  1.00  0.00     0.174 HD
HETATM   10  H   LIG     1      30.092  25.077  23.481  1.00  0.00     0.174 HD
ENDBRANCH   5   8
BRANCH   7  11
HETATM   11  N   LIG     1      26.777  26.415  19.299  1.00  0.00    -0.383 N 
HETATM   12  H   LIG     1      26.239  27.165  19.787  1.00  0.00     0.157 HD
HETATM   13  H   LIG     1      26.730  26.396  18.257  1.00  0.00     0.157 HD
ENDBRANCH   7  11
ENDBRANCH   1   2
BRANCH   1  14
HETATM   14  C   LIG     1      25.773  22.540  18.427  1.00  0.00    -0.048 A 
HETATM   15  C   LIG     1      25.953  21.284  17.843  1.00  0.00     0.047 A 
HETATM   16  C   LIG     1      24.974  20.280  17.964  1.00  0.00     0.104 A 
HETATM   17  C   LIG     1      23.779  20.551  18.687  1.00  0.00     0.135 A 
HETATM   18  C   LIG     1      23.602  21.832  19.275  1.00  0.00     0.104 A 
HETATM   19  C   LIG     1      24.598  22.803  19.135  1.00  0.00     0.047 A 
BRANCH  16  20
HETATM   20  O   LIG     1      25.171  19.020  17.376  1.00  0.00    -0.353 OA
HETATM   21  C   LIG     1      24.791  18.664  16.050  1.00  0.00     0.210 C 
ENDBRANCH  16  20
BRANCH  17  22
HETATM   22  O   LIG     1      22.758  19.596  18.847  1.00  0.00    -0.351 OA
HETATM   23  C   LIG     1      22.699  18.548  19.810  1.00  0.00     0.210 C 
ENDBRANCH  17  22
BRANCH  18  24
HETATM   24  O   LIG     1      22.465  22.216  20.013  1.00  0.00    -0.353 OA
HETATM   25  C   LIG     1      22.442  22.732  21.339  1.00  0.00     0.210 C 
ENDBRANCH  18  24
ENDBRANCH   1  14
TORSDOF 7
ENDMDL
MODEL 19
REMARK VINA RESULT:      -4.4     15.242     16.957
REMARK  7 active torsions:
REMARK  status: ('A' for Active; 'I' for Inactive)
REMARK    1  A    between atoms: N_1  and  C_2 
REMARK    2  A    between atoms: C_5  and  C_6 
REMARK    3  A    between atoms: C_6  and  C_7 
REMARK    4  A    between atoms: C_9  and  O_10 
REMARK    5  A    between atoms: C_12  and  O_13 
REMARK    6  A    between atoms: C_15  and  O_16 
REMARK    7  A    between atoms: C_19  and  N_20 
ROOT
HETATM    1  C   LIG     1      23.506  21.889  18.565  1.00  0.00     0.082 C 
ENDROOT
BRANCH   1   2
HETATM    2  C   LIG     1      23.261  21.315  19.950  1.00  0.00     0.010 A 
HETATM    3  C   LIG     1      23.131  22.168  21.062  1.00  0.00     0.147 A 
HETATM    4  N   LIG     1      22.898  21.659  22.297  1.00  0.00    -0.075 NA
HETATM    5  C   LIG     1      22.810  20.321  22.497  1.00  0.00     0.721 A 
HETATM    6  N   LIG     1      22.985  19.470  21.455  1.00  0.00    -0.045 NA
HETATM    7  C   LIG     1      23.228  19.921  20.196  1.00  0.00     0.148 A 
BRANCH   5   8
HETATM    8  N   LIG     1      22.556  19.808  23.803  1.00  0.00    -0.231 N 
HETATM    9  H   LIG     1      21.614  19.429  24.048  1.00  0.00     0.174 HD
HETATM   10  H   LIG     1      23.309  19.805  24.525  1.00  0.00     0.174 HD
ENDBRANCH   5   8
BRANCH   7  11
HETATM   11  N   LIG     1      23.472  18.958  19.165  1.00  0.00    -0.383 N 
HETATM   12  H   LIG     1      22.779  18.847  18.392  1.00  0.00     0.157 HD
HETATM   13  H   LIG     1      24.251  18.267  19.210  1.00  0.00     0.157 HD
ENDBRANCH   7  11
ENDBRANCH   1   2
BRANCH   1  14
HETATM   14  C   LIG     1      24.952  22.260  18.329  1.00  0.00    -0.048 A 
HETATM   15  C   LIG     1      25.389  23.564  18.572  1.00  0.00     0.047 A 
HETATM   16  C   LIG     1      26.733  23.930  18.368  1.00  0.00     0.104 A 
HETATM   17  C   LIG     1      27.659  22.957  17.901  1.00  0.00     0.135 A 
HETATM   18  C   LIG     1      27.206  21.633  17.652  1.00  0.00     0.104 A 
HETATM   19  C   LIG     1      25.864  21.308  17.869  1.00  0.00     0.047 A 
BRANCH  16  20
HETATM   20  O   LIG     1      27.159  25.244  18.622  1.00  0.00    -0.353 OA
HETATM   21  C   LIG     1      27.355  25.807  19.916  1.00  0.00     0.210 C 
ENDBRANCH  16  20
BRANCH  17  22
HETATM   22  O   LIG     1      29.017  23.252  17.673  1.00  0.00    -0.351 OA
HETATM   23  C   LIG     1      29.606  23.735  16.470  1.00  0.00     0.210 C 
ENDBRANCH  17  22
BRANCH  18  24
HETATM   24  O   LIG     1      28.029  20.587  17.189  1.00  0.00    -0.353 OA
HETATM   25  C   LIG     1      28.168  20.144  15.844  1.00  0.00     0.210 C 
ENDBRANCH  18  24
ENDBRANCH   1  14
TORSDOF 7
ENDMDL
MODEL 20
REMARK VINA RESULT:      -4.4     15.171     17.064
REMARK  7 active torsions:
REMARK  status: ('A' for Active; 'I' for Inactive)
REMARK    1  A    between atoms: N_1  and  C_2 
REMARK    2  A    between atoms: C_5  and  C_6 
REMARK    3  A    between atoms: C_6  and  C_7 
REMARK    4  A    between atoms: C_9  and  O_10 
REMARK    5  A    between atoms: C_12  and  O_13 
REMARK    6  A    between atoms: C_15  and  O_16 
REMARK    7  A    between atoms: C_19  and  N_20 
ROOT
HETATM    1  C   LIG     1      23.408  21.904  18.722  1.00  0.00     0.082 C 
ENDROOT
BRANCH   1   2
HETATM    2  C   LIG     1      23.220  21.152  20.029  1.00  0.00     0.010 A 
HETATM    3  C   LIG     1      23.199  19.745  20.045  1.00  0.00     0.147 A 
HETATM    4  N   LIG     1      23.047  19.072  21.213  1.00  0.00    -0.075 NA
HETATM    5  C   LIG     1      22.885  19.733  22.385  1.00  0.00     0.721 A 
HETATM    6  N   LIG     1      22.845  21.088  22.397  1.00  0.00    -0.045 NA
HETATM    7  C   LIG     1      22.986  21.817  21.257  1.00  0.00     0.148 A 
BRANCH   5   8
HETATM    8  N   LIG     1      22.734  19.004  23.602  1.00  0.00    -0.231 N 
HETATM    9  H   LIG     1      21.783  18.746  23.949  1.00  0.00     0.174 HD
HETATM   10  H   LIG     1      23.572  18.720  24.155  1.00  0.00     0.174 HD
ENDBRANCH   5   8
BRANCH   7  11
HETATM   11  N   LIG     1      22.862  23.241  21.342  1.00  0.00    -0.383 N 
HETATM   12  H   LIG     1      21.985  23.702  21.012  1.00  0.00     0.157 HD
HETATM   13  H   LIG     1      23.657  23.862  21.604  1.00  0.00     0.157 HD
ENDBRANCH   7  11
ENDBRANCH   1   2
BRANCH   1  14
HETATM   14  C   LIG     1      24.855  22.234  18.437  1.00  0.00    -0.048 A 
HETATM   15  C   LIG     1      25.705  21.256  17.916  1.00  0.00     0.047 A 
HETATM   16  C   LIG     1      27.054  21.542  17.635  1.00  0.00     0.104 A 
HETATM   17  C   LIG     1      27.561  22.847  17.890  1.00  0.00     0.135 A 
HETATM   18  C   LIG     1      26.689  23.835  18.423  1.00  0.00     0.104 A 
HETATM   19  C   LIG     1      25.355  23.513  18.688  1.00  0.00     0.047 A 
BRANCH  16  20
HETATM   20  O   LIG     1      27.897  20.551  17.106  1.00  0.00    -0.353 OA
HETATM   21  C   LIG     1      28.068  20.273  15.720  1.00  0.00     0.210 C 
ENDBRANCH  16  20
BRANCH  17  22
HETATM   22  O   LIG     1      28.898  23.204  17.634  1.00  0.00    -0.351 OA
HETATM   23  C   LIG     1      29.420  23.807  16.454  1.00  0.00     0.210 C 
ENDBRANCH  17  22
BRANCH  18  24
HETATM   24  O   LIG     1      27.075  25.158  18.716  1.00  0.00    -0.353 OA
HETATM   25  C   LIG     1      27.474  25.669  19.983  1.00  0.00     0.210 C 
ENDBRANCH  18  24
ENDBRANCH   1  14
TORSDOF 7
ENDMDL
