REMARK  7 active torsions:
REMARK  status: ('A' for Active; 'I' for Inactive)
REMARK    1  A    between atoms: N_1  and  C_2 
REMARK    2  A    between atoms: C_5  and  C_6 
REMARK    3  A    between atoms: C_6  and  C_7 
REMARK    4  A    between atoms: C_9  and  O_10 
REMARK    5  A    between atoms: C_12  and  O_13 
REMARK    6  A    between atoms: C_15  and  O_16 
REMARK    7  A    between atoms: C_19  and  N_20 
ROOT
HETATM    1  C   LIG     1       1.249  -0.904  -1.528  1.00  0.00     0.082 C 
ENDROOT
BRANCH   1   2
HETATM    2  C   LIG     1       2.398  -0.895  -0.534  1.00  0.00     0.010 A 
HETATM    3  C   LIG     1       2.619   0.224   0.291  1.00  0.00     0.147 A 
HETATM    4  N   LIG     1       3.635   0.228   1.189  1.00  0.00    -0.075 NA
HETATM    5  C   LIG     1       4.476  -0.830   1.298  1.00  0.00     0.721 A 
HETATM    6  N   LIG     1       4.324  -1.901   0.480  1.00  0.00    -0.045 NA
HETATM    7  C   LIG     1       3.328  -1.959  -0.444  1.00  0.00     0.148 A 
BRANCH   5   8
HETATM    8  N   LIG     1       5.533  -0.807   2.255  1.00  0.00    -0.231 N 
HETATM    9  H   LIG     1       5.660   0.018   2.883  1.00  0.00     0.174 HD
HETATM   10  H   LIG     1       6.188  -1.615   2.338  1.00  0.00     0.174 HD
ENDBRANCH   5   8
BRANCH   7  11
HETATM   11  N   LIG     1       3.277  -3.093  -1.317  1.00  0.00    -0.383 N 
HETATM   12  H   LIG     1       3.921  -3.898  -1.152  1.00  0.00     0.157 HD
HETATM   13  H   LIG     1       2.712  -3.106  -2.193  1.00  0.00     0.157 HD
ENDBRANCH   7  11
ENDBRANCH   1   2
BRANCH   1  14
HETATM   14  C   LIG     1       0.019  -0.194  -1.011  1.00  0.00    -0.048 A 
HETATM   15  C   LIG     1      -0.681  -0.712   0.081  1.00  0.00     0.047 A 
HETATM   16  C   LIG     1      -1.824  -0.063   0.584  1.00  0.00     0.104 A 
HETATM   17  C   LIG     1      -2.277   1.136  -0.033  1.00  0.00     0.135 A 
HETATM   18  C   LIG     1      -1.561   1.654  -1.146  1.00  0.00     0.104 A 
HETATM   19  C   LIG     1      -0.429   0.982  -1.616  1.00  0.00     0.047 A 
BRANCH  16  20
HETATM   20  O   LIG     1      -2.515  -0.592   1.687  1.00  0.00    -0.353 OA
HETATM   21  C   LIG     1      -2.154  -1.777   2.390  1.00  0.00     0.210 C 
ENDBRANCH  16  20
BRANCH  17  22
HETATM   22  O   LIG     1      -3.412   1.837   0.416  1.00  0.00    -0.351 OA
HETATM   23  C   LIG     1      -4.264   1.494   1.504  1.00  0.00     0.210 C 
ENDBRANCH  17  22
BRANCH  18  24
HETATM   24  O   LIG     1      -1.913   2.830  -1.837  1.00  0.00    -0.353 OA
HETATM   25  C   LIG     1      -3.013   3.688  -1.555  1.00  0.00     0.210 C 
ENDBRANCH  18  24
ENDBRANCH   1  14
TORSDOF 7
