MODEL 1
REMARK VINA RESULT:      -6.4      0.000      0.000
REMARK  2 active torsions:
REMARK  status: ('A' for Active; 'I' for Inactive)
REMARK    1  A    between atoms: C_2  and  C_3 
REMARK    2  A    between atoms: C_2  and  O_10 
ROOT
HETATM    1  C   LIG     1      17.253  37.969  22.417  1.00  0.00     0.037 A 
HETATM    2  C   LIG     1      17.484  36.991  21.433  1.00  0.00     0.020 A 
HETATM    3  C   LIG     1      18.353  37.249  20.368  1.00  0.00     0.025 A 
HETATM    4  C   LIG     1      19.000  38.485  20.273  1.00  0.00     0.034 A 
HETATM    5 CL   LIG     1      20.090  38.806  18.937  1.00  0.00    -0.084 Cl
HETATM    6  C   LIG     1      18.777  39.464  21.246  1.00  0.00     0.025 A 
HETATM    7  C   LIG     1      17.909  39.210  22.313  1.00  0.00     0.020 A 
ENDROOT
BRANCH   1   8
HETATM    8  C   LIG     1      16.334  37.693  23.543  1.00  0.00     0.176 C 
HETATM    9  O   LIG     1      16.759  37.142  24.594  1.00  0.00    -0.646 OA
BRANCH   8  10
HETATM   10  O   LIG     1      14.989  38.041  23.452  1.00  0.00    -0.773 OA
HETATM   11  H   LIG     1      14.276  37.493  23.919  1.00  0.00     0.167 HD
ENDBRANCH   8  10
ENDBRANCH   1   8
TORSDOF 2
ENDMDL
MODEL 2
REMARK VINA RESULT:      -6.4      0.028      1.532
REMARK  2 active torsions:
REMARK  status: ('A' for Active; 'I' for Inactive)
REMARK    1  A    between atoms: C_2  and  C_3 
REMARK    2  A    between atoms: C_2  and  O_10 
ROOT
HETATM    1  C   LIG     1      17.257  37.952  22.398  1.00  0.00     0.037 A 
HETATM    2  C   LIG     1      17.901  39.198  22.297  1.00  0.00     0.020 A 
HETATM    3  C   LIG     1      18.770  39.462  21.233  1.00  0.00     0.025 A 
HETATM    4  C   LIG     1      19.004  38.486  20.259  1.00  0.00     0.034 A 
HETATM    5 CL   LIG     1      20.092  38.819  18.925  1.00  0.00    -0.084 Cl
HETATM    6  C   LIG     1      18.367  37.244  20.351  1.00  0.00     0.025 A 
HETATM    7  C   LIG     1      17.498  36.977  21.413  1.00  0.00     0.020 A 
ENDROOT
BRANCH   1   8
HETATM    8  C   LIG     1      16.338  37.676  23.525  1.00  0.00     0.176 C 
HETATM    9  O   LIG     1      16.757  37.094  24.562  1.00  0.00    -0.646 OA
BRANCH   8  10
HETATM   10  O   LIG     1      15.001  38.059  23.451  1.00  0.00    -0.773 OA
HETATM   11  H   LIG     1      14.735  38.942  23.032  1.00  0.00     0.167 HD
ENDBRANCH   8  10
ENDBRANCH   1   8
TORSDOF 2
ENDMDL
MODEL 3
REMARK VINA RESULT:      -6.3      3.889      4.886
REMARK  2 active torsions:
REMARK  status: ('A' for Active; 'I' for Inactive)
REMARK    1  A    between atoms: C_2  and  C_3 
REMARK    2  A    between atoms: C_2  and  O_10 
ROOT
HETATM    1  C   LIG     1      18.859  38.416  19.746  1.00  0.00     0.037 A 
HETATM    2  C   LIG     1      18.394  39.048  20.913  1.00  0.00     0.020 A 
HETATM    3  C   LIG     1      17.695  38.321  21.882  1.00  0.00     0.025 A 
HETATM    4  C   LIG     1      17.452  36.956  21.695  1.00  0.00     0.034 A 
HETATM    5 CL   LIG     1      16.575  36.046  22.911  1.00  0.00    -0.084 Cl
HETATM    6  C   LIG     1      17.910  36.319  20.538  1.00  0.00     0.025 A 
HETATM    7  C   LIG     1      18.610  37.043  19.568  1.00  0.00     0.020 A 
ENDROOT
BRANCH   1   8
HETATM    8  C   LIG     1      19.599  39.189  18.724  1.00  0.00     0.176 C 
HETATM    9  O   LIG     1      19.015  39.591  17.681  1.00  0.00    -0.646 OA
BRANCH   8  10
HETATM   10  O   LIG     1      20.949  39.479  18.904  1.00  0.00    -0.773 OA
HETATM   11  H   LIG     1      21.508  38.961  19.571  1.00  0.00     0.167 HD
ENDBRANCH   8  10
ENDBRANCH   1   8
TORSDOF 2
ENDMDL
MODEL 4
REMARK VINA RESULT:      -6.1      3.784      4.438
REMARK  2 active torsions:
REMARK  status: ('A' for Active; 'I' for Inactive)
REMARK    1  A    between atoms: C_2  and  C_3 
REMARK    2  A    between atoms: C_2  and  O_10 
ROOT
HETATM    1  C   LIG     1      16.609  35.999  22.383  1.00  0.00     0.037 A 
HETATM    2  C   LIG     1      16.934  34.918  23.222  1.00  0.00     0.020 A 
HETATM    3  C   LIG     1      17.394  35.145  24.523  1.00  0.00     0.025 A 
HETATM    4  C   LIG     1      17.535  36.451  25.001  1.00  0.00     0.034 A 
HETATM    5 CL   LIG     1      18.112  36.733  26.633  1.00  0.00    -0.084 Cl
HETATM    6  C   LIG     1      17.214  37.533  24.174  1.00  0.00     0.025 A 
HETATM    7  C   LIG     1      16.754  37.310  22.873  1.00  0.00     0.020 A 
ENDROOT
BRANCH   1   8
HETATM    8  C   LIG     1      16.122  35.756  21.008  1.00  0.00     0.176 C 
HETATM    9  O   LIG     1      16.937  35.639  20.053  1.00  0.00    -0.646 OA
BRANCH   8  10
HETATM   10  O   LIG     1      14.756  35.654  20.754  1.00  0.00    -0.773 OA
HETATM   11  H   LIG     1      14.076  36.013  21.414  1.00  0.00     0.167 HD
ENDBRANCH   8  10
ENDBRANCH   1   8
TORSDOF 2
ENDMDL
MODEL 5
REMARK VINA RESULT:      -6.0      8.695      9.664
REMARK  2 active torsions:
REMARK  status: ('A' for Active; 'I' for Inactive)
REMARK    1  A    between atoms: C_2  and  C_3 
REMARK    2  A    between atoms: C_2  and  O_10 
ROOT
HETATM    1  C   LIG     1      14.752  32.459  16.412  1.00  0.00     0.037 A 
HETATM    2  C   LIG     1      13.549  31.846  16.807  1.00  0.00     0.020 A 
HETATM    3  C   LIG     1      13.066  30.726  16.123  1.00  0.00     0.025 A 
HETATM    4  C   LIG     1      13.779  30.205  15.038  1.00  0.00     0.034 A 
HETATM    5 CL   LIG     1      13.173  28.799  14.183  1.00  0.00    -0.084 Cl
HETATM    6  C   LIG     1      14.976  30.807  14.638  1.00  0.00     0.025 A 
HETATM    7  C   LIG     1      15.461  31.927  15.319  1.00  0.00     0.020 A 
ENDROOT
BRANCH   1   8
HETATM    8  C   LIG     1      15.259  33.644  17.138  1.00  0.00     0.176 C 
HETATM    9  O   LIG     1      15.731  34.626  16.505  1.00  0.00    -0.646 OA
BRANCH   8  10
HETATM   10  O   LIG     1      15.219  33.685  18.529  1.00  0.00    -0.773 OA
HETATM   11  H   LIG     1      15.129  32.835  19.073  1.00  0.00     0.167 HD
ENDBRANCH   8  10
ENDBRANCH   1   8
TORSDOF 2
ENDMDL
MODEL 6
REMARK VINA RESULT:      -5.9      3.568      4.690
REMARK  2 active torsions:
REMARK  status: ('A' for Active; 'I' for Inactive)
REMARK    1  A    between atoms: C_2  and  C_3 
REMARK    2  A    between atoms: C_2  and  O_10 
ROOT
HETATM    1  C   LIG     1      17.074  37.732  23.538  1.00  0.00     0.037 A 
HETATM    2  C   LIG     1      17.633  38.112  24.771  1.00  0.00     0.020 A 
HETATM    3  C   LIG     1      17.992  37.144  25.715  1.00  0.00     0.025 A 
HETATM    4  C   LIG     1      17.796  35.788  25.438  1.00  0.00     0.034 A 
HETATM    5 CL   LIG     1      18.247  34.575  26.622  1.00  0.00    -0.084 Cl
HETATM    6  C   LIG     1      17.241  35.400  24.215  1.00  0.00     0.025 A 
HETATM    7  C   LIG     1      16.881  36.365  23.269  1.00  0.00     0.020 A 
ENDROOT
BRANCH   1   8
HETATM    8  C   LIG     1      16.697  38.759  22.542  1.00  0.00     0.176 C 
HETATM    9  O   LIG     1      15.571  39.325  22.604  1.00  0.00    -0.646 OA
BRANCH   8  10
HETATM   10  O   LIG     1      17.582  39.111  21.527  1.00  0.00    -0.773 OA
HETATM   11  H   LIG     1      18.090  39.987  21.560  1.00  0.00     0.167 HD
ENDBRANCH   8  10
ENDBRANCH   1   8
TORSDOF 2
ENDMDL
MODEL 7
REMARK VINA RESULT:      -5.9      3.827      4.718
REMARK  2 active torsions:
REMARK  status: ('A' for Active; 'I' for Inactive)
REMARK    1  A    between atoms: C_2  and  C_3 
REMARK    2  A    between atoms: C_2  and  O_10 
ROOT
HETATM    1  C   LIG     1      18.791  38.317  19.903  1.00  0.00     0.037 A 
HETATM    2  C   LIG     1      18.291  38.896  21.083  1.00  0.00     0.020 A 
HETATM    3  C   LIG     1      17.569  38.124  22.000  1.00  0.00     0.025 A 
HETATM    4  C   LIG     1      17.341  36.768  21.749  1.00  0.00     0.034 A 
HETATM    5 CL   LIG     1      16.437  35.802  22.900  1.00  0.00    -0.084 Cl
HETATM    6  C   LIG     1      17.834  36.183  20.579  1.00  0.00     0.025 A 
HETATM    7  C   LIG     1      18.556  36.951  19.660  1.00  0.00     0.020 A 
ENDROOT
BRANCH   1   8
HETATM    8  C   LIG     1      19.555  39.136  18.935  1.00  0.00     0.176 C 
HETATM    9  O   LIG     1      20.777  39.376  19.127  1.00  0.00    -0.646 OA
BRANCH   8  10
HETATM   10  O   LIG     1      18.928  39.648  17.802  1.00  0.00    -0.773 OA
HETATM   11  H   LIG     1      19.397  39.648  16.904  1.00  0.00     0.167 HD
ENDBRANCH   8  10
ENDBRANCH   1   8
TORSDOF 2
ENDMDL
MODEL 8
REMARK VINA RESULT:      -5.8      2.833      3.472
REMARK  2 active torsions:
REMARK  status: ('A' for Active; 'I' for Inactive)
REMARK    1  A    between atoms: C_2  and  C_3 
REMARK    2  A    between atoms: C_2  and  O_10 
ROOT
HETATM    1  C   LIG     1      16.268  35.733  21.189  1.00  0.00     0.037 A 
HETATM    2  C   LIG     1      15.889  36.647  22.188  1.00  0.00     0.020 A 
HETATM    3  C   LIG     1      16.627  37.817  22.394  1.00  0.00     0.025 A 
HETATM    4  C   LIG     1      17.750  38.087  21.605  1.00  0.00     0.034 A 
HETATM    5 CL   LIG     1      18.673  39.555  21.865  1.00  0.00    -0.084 Cl
HETATM    6  C   LIG     1      18.134  37.184  20.609  1.00  0.00     0.025 A 
HETATM    7  C   LIG     1      17.399  36.013  20.401  1.00  0.00     0.020 A 
ENDROOT
BRANCH   1   8
HETATM    8  C   LIG     1      15.485  34.496  20.973  1.00  0.00     0.176 C 
HETATM    9  O   LIG     1      15.937  33.573  20.243  1.00  0.00    -0.646 OA
BRANCH   8  10
HETATM   10  O   LIG     1      14.240  34.339  21.577  1.00  0.00    -0.773 OA
HETATM   11  H   LIG     1      13.581  33.648  21.239  1.00  0.00     0.167 HD
ENDBRANCH   8  10
ENDBRANCH   1   8
TORSDOF 2
ENDMDL
MODEL 9
REMARK VINA RESULT:      -5.8      3.966      4.584
REMARK  2 active torsions:
REMARK  status: ('A' for Active; 'I' for Inactive)
REMARK    1  A    between atoms: C_2  and  C_3 
REMARK    2  A    between atoms: C_2  and  O_10 
ROOT
HETATM    1  C   LIG     1      16.163  35.658  21.962  1.00  0.00     0.037 A 
HETATM    2  C   LIG     1      15.766  37.000  22.099  1.00  0.00     0.020 A 
HETATM    3  C   LIG     1      16.130  37.734  23.233  1.00  0.00     0.025 A 
HETATM    4  C   LIG     1      16.894  37.137  24.240  1.00  0.00     0.034 A 
HETATM    5 CL   LIG     1      17.350  38.059  25.660  1.00  0.00    -0.084 Cl
HETATM    6  C   LIG     1      17.293  35.803  24.113  1.00  0.00     0.025 A 
HETATM    7  C   LIG     1      16.930  35.066  22.982  1.00  0.00     0.020 A 
ENDROOT
BRANCH   1   8
HETATM    8  C   LIG     1      15.776  34.884  20.761  1.00  0.00     0.176 C 
HETATM    9  O   LIG     1      16.290  35.146  19.641  1.00  0.00    -0.646 OA
BRANCH   8  10
HETATM   10  O   LIG     1      14.840  33.858  20.859  1.00  0.00    -0.773 OA
HETATM   11  H   LIG     1      15.133  32.897  20.993  1.00  0.00     0.167 HD
ENDBRANCH   8  10
ENDBRANCH   1   8
TORSDOF 2
ENDMDL
MODEL 10
REMARK VINA RESULT:      -5.8      3.300      4.196
REMARK  2 active torsions:
REMARK  status: ('A' for Active; 'I' for Inactive)
REMARK    1  A    between atoms: C_2  and  C_3 
REMARK    2  A    between atoms: C_2  and  O_10 
ROOT
HETATM    1  C   LIG     1      17.929  37.947  21.335  1.00  0.00     0.037 A 
HETATM    2  C   LIG     1      16.875  37.948  22.266  1.00  0.00     0.020 A 
HETATM    3  C   LIG     1      15.963  36.888  22.305  1.00  0.00     0.025 A 
HETATM    4  C   LIG     1      16.093  35.817  21.416  1.00  0.00     0.034 A 
HETATM    5 CL   LIG     1      14.949  34.489  21.466  1.00  0.00    -0.084 Cl
HETATM    6  C   LIG     1      17.137  35.807  20.486  1.00  0.00     0.025 A 
HETATM    7  C   LIG     1      18.051  36.864  20.444  1.00  0.00     0.020 A 
ENDROOT
BRANCH   1   8
HETATM    8  C   LIG     1      18.892  39.069  21.297  1.00  0.00     0.176 C 
HETATM    9  O   LIG     1      19.044  39.744  20.243  1.00  0.00    -0.646 OA
BRANCH   8  10
HETATM   10  O   LIG     1      19.639  39.392  22.427  1.00  0.00    -0.773 OA
HETATM   11  H   LIG     1      20.582  39.041  22.544  1.00  0.00     0.167 HD
ENDBRANCH   8  10
ENDBRANCH   1   8
TORSDOF 2
ENDMDL
MODEL 11
REMARK VINA RESULT:      -5.7      9.802     10.735
REMARK  2 active torsions:
REMARK  status: ('A' for Active; 'I' for Inactive)
REMARK    1  A    between atoms: C_2  and  C_3 
REMARK    2  A    between atoms: C_2  and  O_10 
ROOT
HETATM    1  C   LIG     1      14.179  30.369  15.030  1.00  0.00     0.037 A 
HETATM    2  C   LIG     1      15.316  31.141  14.732  1.00  0.00     0.020 A 
HETATM    3  C   LIG     1      15.607  32.290  15.476  1.00  0.00     0.025 A 
HETATM    4  C   LIG     1      14.767  32.680  16.523  1.00  0.00     0.034 A 
HETATM    5 CL   LIG     1      15.134  34.119  17.454  1.00  0.00    -0.084 Cl
HETATM    6  C   LIG     1      13.634  31.919  16.826  1.00  0.00     0.025 A 
HETATM    7  C   LIG     1      13.339  30.770  16.085  1.00  0.00     0.020 A 
ENDROOT
BRANCH   1   8
HETATM    8  C   LIG     1      13.874  29.155  14.242  1.00  0.00     0.176 C 
HETATM    9  O   LIG     1      14.804  28.405  13.839  1.00  0.00    -0.646 OA
BRANCH   8  10
HETATM   10  O   LIG     1      12.555  28.828  13.937  1.00  0.00    -0.773 OA
HETATM   11  H   LIG     1      12.141  27.967  14.276  1.00  0.00     0.167 HD
ENDBRANCH   8  10
ENDBRANCH   1   8
TORSDOF 2
ENDMDL
MODEL 12
REMARK VINA RESULT:      -5.6      9.377     10.414
REMARK  2 active torsions:
REMARK  status: ('A' for Active; 'I' for Inactive)
REMARK    1  A    between atoms: C_2  and  C_3 
REMARK    2  A    between atoms: C_2  and  O_10 
ROOT
HETATM    1  C   LIG     1      15.660  32.163  15.205  1.00  0.00     0.037 A 
HETATM    2  C   LIG     1      14.630  31.750  16.069  1.00  0.00     0.020 A 
HETATM    3  C   LIG     1      13.819  30.660  15.736  1.00  0.00     0.025 A 
HETATM    4  C   LIG     1      14.028  29.971  14.537  1.00  0.00     0.034 A 
HETATM    5 CL   LIG     1      13.012  28.604  14.121  1.00  0.00    -0.084 Cl
HETATM    6  C   LIG     1      15.050  30.374  13.671  1.00  0.00     0.025 A 
HETATM    7  C   LIG     1      15.861  31.463  14.001  1.00  0.00     0.020 A 
ENDROOT
BRANCH   1   8
HETATM    8  C   LIG     1      16.515  33.316  15.561  1.00  0.00     0.176 C 
HETATM    9  O   LIG     1      17.749  33.300  15.301  1.00  0.00    -0.646 OA
BRANCH   8  10
HETATM   10  O   LIG     1      15.965  34.432  16.186  1.00  0.00    -0.773 OA
HETATM   11  H   LIG     1      14.988  34.671  16.060  1.00  0.00     0.167 HD
ENDBRANCH   8  10
ENDBRANCH   1   8
TORSDOF 2
ENDMDL
MODEL 13
REMARK VINA RESULT:      -5.5      3.624      4.480
REMARK  2 active torsions:
REMARK  status: ('A' for Active; 'I' for Inactive)
REMARK    1  A    between atoms: C_2  and  C_3 
REMARK    2  A    between atoms: C_2  and  O_10 
ROOT
HETATM    1  C   LIG     1      18.238  37.784  20.721  1.00  0.00     0.037 A 
HETATM    2  C   LIG     1      18.669  38.867  21.507  1.00  0.00     0.020 A 
HETATM    3  C   LIG     1      18.292  38.962  22.851  1.00  0.00     0.025 A 
HETATM    4  C   LIG     1      17.482  37.977  23.423  1.00  0.00     0.034 A 
HETATM    5 CL   LIG     1      17.011  38.097  25.108  1.00  0.00    -0.084 Cl
HETATM    6  C   LIG     1      17.048  36.896  22.650  1.00  0.00     0.025 A 
HETATM    7  C   LIG     1      17.422  36.798  21.307  1.00  0.00     0.020 A 
ENDROOT
BRANCH   1   8
HETATM    8  C   LIG     1      18.638  37.686  19.300  1.00  0.00     0.176 C 
HETATM    9  O   LIG     1      19.202  38.658  18.728  1.00  0.00    -0.646 OA
BRANCH   8  10
HETATM   10  O   LIG     1      18.397  36.519  18.581  1.00  0.00    -0.773 OA
HETATM   11  H   LIG     1      19.154  36.020  18.129  1.00  0.00     0.167 HD
ENDBRANCH   8  10
ENDBRANCH   1   8
TORSDOF 2
ENDMDL
MODEL 14
REMARK VINA RESULT:      -5.4      9.584     10.548
REMARK  2 active torsions:
REMARK  status: ('A' for Active; 'I' for Inactive)
REMARK    1  A    between atoms: C_2  and  C_3 
REMARK    2  A    between atoms: C_2  and  O_10 
ROOT
HETATM    1  C   LIG     1      14.461  30.620  15.007  1.00  0.00     0.037 A 
HETATM    2  C   LIG     1      13.599  30.911  16.079  1.00  0.00     0.020 A 
HETATM    3  C   LIG     1      13.829  32.028  16.889  1.00  0.00     0.025 A 
HETATM    4  C   LIG     1      14.920  32.865  16.637  1.00  0.00     0.034 A 
HETATM    5 CL   LIG     1      15.206  34.266  17.653  1.00  0.00    -0.084 Cl
HETATM    6  C   LIG     1      15.782  32.584  15.573  1.00  0.00     0.025 A 
HETATM    7  C   LIG     1      15.556  31.468  14.761  1.00  0.00     0.020 A 
ENDROOT
BRANCH   1   8
HETATM    8  C   LIG     1      14.215  29.437  14.152  1.00  0.00     0.176 C 
HETATM    9  O   LIG     1      13.112  28.829  14.206  1.00  0.00    -0.646 OA
BRANCH   8  10
HETATM   10  O   LIG     1      15.201  28.985  13.278  1.00  0.00    -0.773 OA
HETATM   11  H   LIG     1      16.161  28.884  13.584  1.00  0.00     0.167 HD
ENDBRANCH   8  10
ENDBRANCH   1   8
TORSDOF 2
ENDMDL
MODEL 15
REMARK VINA RESULT:      -5.3      3.156      3.873
REMARK  2 active torsions:
REMARK  status: ('A' for Active; 'I' for Inactive)
REMARK    1  A    between atoms: C_2  and  C_3 
REMARK    2  A    between atoms: C_2  and  O_10 
ROOT
HETATM    1  C   LIG     1      16.297  36.875  22.563  1.00  0.00     0.037 A 
HETATM    2  C   LIG     1      15.043  36.694  21.953  1.00  0.00     0.020 A 
HETATM    3  C   LIG     1      14.785  35.552  21.187  1.00  0.00     0.025 A 
HETATM    4  C   LIG     1      15.776  34.579  21.023  1.00  0.00     0.034 A 
HETATM    5 CL   LIG     1      15.451  33.148  20.064  1.00  0.00    -0.084 Cl
HETATM    6  C   LIG     1      17.026  34.749  21.626  1.00  0.00     0.025 A 
HETATM    7  C   LIG     1      17.287  35.890  22.392  1.00  0.00     0.020 A 
ENDROOT
BRANCH   1   8
HETATM    8  C   LIG     1      16.566  38.084  23.372  1.00  0.00     0.176 C 
HETATM    9  O   LIG     1      16.359  38.078  24.616  1.00  0.00    -0.646 OA
BRANCH   8  10
HETATM   10  O   LIG     1      17.051  39.240  22.767  1.00  0.00    -0.773 OA
HETATM   11  H   LIG     1      16.976  40.139  23.227  1.00  0.00     0.167 HD
ENDBRANCH   8  10
ENDBRANCH   1   8
TORSDOF 2
ENDMDL
MODEL 16
REMARK VINA RESULT:      -5.3      8.303      9.299
REMARK  2 active torsions:
REMARK  status: ('A' for Active; 'I' for Inactive)
REMARK    1  A    between atoms: C_2  and  C_3 
REMARK    2  A    between atoms: C_2  and  O_10 
ROOT
HETATM    1  C   LIG     1      14.697  31.737  16.092  1.00  0.00     0.037 A 
HETATM    2  C   LIG     1      15.527  32.851  16.314  1.00  0.00     0.020 A 
HETATM    3  C   LIG     1      16.448  33.252  15.341  1.00  0.00     0.025 A 
HETATM    4  C   LIG     1      16.551  32.547  14.138  1.00  0.00     0.034 A 
HETATM    5 CL   LIG     1      17.705  33.053  12.919  1.00  0.00    -0.084 Cl
HETATM    6  C   LIG     1      15.730  31.439  13.908  1.00  0.00     0.025 A 
HETATM    7  C   LIG     1      14.809  31.034  14.878  1.00  0.00     0.020 A 
ENDROOT
BRANCH   1   8
HETATM    8  C   LIG     1      13.724  31.315  17.124  1.00  0.00     0.176 C 
HETATM    9  O   LIG     1      12.795  30.513  16.834  1.00  0.00    -0.646 OA
BRANCH   8  10
HETATM   10  O   LIG     1      13.826  31.799  18.425  1.00  0.00    -0.773 OA
HETATM   11  H   LIG     1      14.274  31.251  19.150  1.00  0.00     0.167 HD
ENDBRANCH   8  10
ENDBRANCH   1   8
TORSDOF 2
ENDMDL
MODEL 17
REMARK VINA RESULT:      -5.3      9.416     10.499
REMARK  2 active torsions:
REMARK  status: ('A' for Active; 'I' for Inactive)
REMARK    1  A    between atoms: C_2  and  C_3 
REMARK    2  A    between atoms: C_2  and  O_10 
ROOT
HETATM    1  C   LIG     1      16.489  32.612  14.058  1.00  0.00     0.037 A 
HETATM    2  C   LIG     1      15.816  31.495  13.530  1.00  0.00     0.020 A 
HETATM    3  C   LIG     1      14.870  30.809  14.298  1.00  0.00     0.025 A 
HETATM    4  C   LIG     1      14.586  31.230  15.601  1.00  0.00     0.034 A 
HETATM    5 CL   LIG     1      13.399  30.369  16.563  1.00  0.00    -0.084 Cl
HETATM    6  C   LIG     1      15.250  32.338  16.135  1.00  0.00     0.025 A 
HETATM    7  C   LIG     1      16.196  33.027  15.370  1.00  0.00     0.020 A 
ENDROOT
BRANCH   1   8
HETATM    8  C   LIG     1      17.489  33.335  13.242  1.00  0.00     0.176 C 
HETATM    9  O   LIG     1      17.707  34.561  13.439  1.00  0.00    -0.646 OA
BRANCH   8  10
HETATM   10  O   LIG     1      18.200  32.668  12.248  1.00  0.00    -0.773 OA
HETATM   11  H   LIG     1      19.202  32.785  12.158  1.00  0.00     0.167 HD
ENDBRANCH   8  10
ENDBRANCH   1   8
TORSDOF 2
ENDMDL
MODEL 18
REMARK VINA RESULT:      -5.3      8.741      9.598
REMARK  2 active torsions:
REMARK  status: ('A' for Active; 'I' for Inactive)
REMARK    1  A    between atoms: C_2  and  C_3 
REMARK    2  A    between atoms: C_2  and  O_10 
ROOT
HETATM    1  C   LIG     1      14.647  31.414  15.670  1.00  0.00     0.037 A 
HETATM    2  C   LIG     1      14.877  30.888  14.386  1.00  0.00     0.020 A 
HETATM    3  C   LIG     1      15.857  31.445  13.558  1.00  0.00     0.025 A 
HETATM    4  C   LIG     1      16.616  32.532  14.002  1.00  0.00     0.034 A 
HETATM    5 CL   LIG     1      17.845  33.228  12.962  1.00  0.00    -0.084 Cl
HETATM    6  C   LIG     1      16.394  33.062  15.276  1.00  0.00     0.025 A 
HETATM    7  C   LIG     1      15.416  32.508  16.107  1.00  0.00     0.020 A 
ENDROOT
BRANCH   1   8
HETATM    8  C   LIG     1      13.609  30.822  16.543  1.00  0.00     0.176 C 
HETATM    9  O   LIG     1      13.724  30.878  17.798  1.00  0.00    -0.646 OA
BRANCH   8  10
HETATM   10  O   LIG     1      12.496  30.198  15.987  1.00  0.00    -0.773 OA
HETATM   11  H   LIG     1      12.597  29.525  15.236  1.00  0.00     0.167 HD
ENDBRANCH   8  10
ENDBRANCH   1   8
TORSDOF 2
ENDMDL
MODEL 19
REMARK VINA RESULT:      -5.3      8.061      8.970
REMARK  2 active torsions:
REMARK  status: ('A' for Active; 'I' for Inactive)
REMARK    1  A    between atoms: C_2  and  C_3 
REMARK    2  A    between atoms: C_2  and  O_10 
ROOT
HETATM    1  C   LIG     1      14.936  32.496  17.236  1.00  0.00     0.037 A 
HETATM    2  C   LIG     1      15.689  32.372  16.055  1.00  0.00     0.020 A 
HETATM    3  C   LIG     1      15.331  31.433  15.082  1.00  0.00     0.025 A 
HETATM    4  C   LIG     1      14.219  30.608  15.279  1.00  0.00     0.034 A 
HETATM    5 CL   LIG     1      13.772  29.431  14.058  1.00  0.00    -0.084 Cl
HETATM    6  C   LIG     1      13.465  30.724  16.450  1.00  0.00     0.025 A 
HETATM    7  C   LIG     1      13.819  31.661  17.424  1.00  0.00     0.020 A 
ENDROOT
BRANCH   1   8
HETATM    8  C   LIG     1      15.317  33.491  18.263  1.00  0.00     0.176 C 
HETATM    9  O   LIG     1      15.618  33.121  19.430  1.00  0.00    -0.646 OA
BRANCH   8  10
HETATM   10  O   LIG     1      15.348  34.848  17.948  1.00  0.00    -0.773 OA
HETATM   11  H   LIG     1      15.403  35.550  18.677  1.00  0.00     0.167 HD
ENDBRANCH   8  10
ENDBRANCH   1   8
TORSDOF 2
ENDMDL
MODEL 20
REMARK VINA RESULT:      -5.2      3.621      4.360
REMARK  2 active torsions:
REMARK  status: ('A' for Active; 'I' for Inactive)
REMARK    1  A    between atoms: C_2  and  C_3 
REMARK    2  A    between atoms: C_2  and  O_10 
ROOT
HETATM    1  C   LIG     1      16.005  35.408  20.638  1.00  0.00     0.037 A 
HETATM    2  C   LIG     1      17.295  35.962  20.557  1.00  0.00     0.020 A 
HETATM    3  C   LIG     1      17.649  37.052  21.359  1.00  0.00     0.025 A 
HETATM    4  C   LIG     1      16.721  37.600  22.250  1.00  0.00     0.034 A 
HETATM    5 CL   LIG     1      17.168  38.965  23.255  1.00  0.00    -0.084 Cl
HETATM    6  C   LIG     1      15.436  37.056  22.337  1.00  0.00     0.025 A 
HETATM    7  C   LIG     1      15.077  35.967  21.537  1.00  0.00     0.020 A 
ENDROOT
BRANCH   1   8
HETATM    8  C   LIG     1      15.633  34.255  19.788  1.00  0.00     0.176 C 
HETATM    9  O   LIG     1      15.573  33.095  20.278  1.00  0.00    -0.646 OA
BRANCH   8  10
HETATM   10  O   LIG     1      15.345  34.442  18.439  1.00  0.00    -0.773 OA
HETATM   11  H   LIG     1      14.691  33.835  17.958  1.00  0.00     0.167 HD
ENDBRANCH   8  10
ENDBRANCH   1   8
TORSDOF 2
ENDMDL
