MODEL 1
REMARK VINA RESULT:      -1.9      0.000      0.000
REMARK  0 active torsions:
REMARK  status: ('A' for Active; 'I' for Inactive)
ROOT
HETATM    1  C   LIG     1      17.576  37.386  25.648  1.00  0.00     0.095 C 
HETATM    2  I   LIG     1      17.921  35.326  26.069  1.00  0.00    -0.095 I 
ENDROOT
TORSDOF 0
ENDMDL
MODEL 2
REMARK VINA RESULT:      -1.7      2.120      2.120
REMARK  0 active torsions:
REMARK  status: ('A' for Active; 'I' for Inactive)
ROOT
HETATM    1  C   LIG     1      17.369  34.769  25.908  1.00  0.00     0.095 C 
HETATM    2  I   LIG     1      18.192  36.726  26.098  1.00  0.00    -0.095 I 
ENDROOT
TORSDOF 0
ENDMDL
MODEL 3
REMARK VINA RESULT:      -1.7      2.112      2.112
REMARK  0 active torsions:
REMARK  status: ('A' for Active; 'I' for Inactive)
ROOT
HETATM    1  C   LIG     1      18.260  36.386  26.583  1.00  0.00     0.095 C 
HETATM    2  I   LIG     1      17.485  37.634  25.039  1.00  0.00    -0.095 I 
ENDROOT
TORSDOF 0
ENDMDL
MODEL 4
REMARK VINA RESULT:      -1.6      6.224      6.224
REMARK  0 active torsions:
REMARK  status: ('A' for Active; 'I' for Inactive)
ROOT
HETATM    1  C   LIG     1      18.550  39.218  21.454  1.00  0.00     0.095 C 
HETATM    2  I   LIG     1      19.520  38.714  19.625  1.00  0.00    -0.095 I 
ENDROOT
TORSDOF 0
ENDMDL
MODEL 5
REMARK VINA RESULT:      -1.5      3.426      3.426
REMARK  0 active torsions:
REMARK  status: ('A' for Active; 'I' for Inactive)
ROOT
HETATM    1  C   LIG     1      17.124  37.884  24.737  1.00  0.00     0.095 C 
HETATM    2  I   LIG     1      17.159  38.539  22.709  1.00  0.00    -0.095 I 
ENDROOT
TORSDOF 0
ENDMDL
MODEL 6
REMARK VINA RESULT:      -1.5     12.148     12.148
REMARK  0 active torsions:
REMARK  status: ('A' for Active; 'I' for Inactive)
ROOT
HETATM    1  C   LIG     1      16.075  43.928  34.735  1.00  0.00     0.095 C 
HETATM    2  I   LIG     1      15.604  45.634  33.548  1.00  0.00    -0.095 I 
ENDROOT
TORSDOF 0
ENDMDL
MODEL 7
REMARK VINA RESULT:      -1.5      5.491      5.491
REMARK  0 active torsions:
REMARK  status: ('A' for Active; 'I' for Inactive)
ROOT
HETATM    1  C   LIG     1      19.019  39.361  20.471  1.00  0.00     0.095 C 
HETATM    2  I   LIG     1      17.773  38.734  22.082  1.00  0.00    -0.095 I 
ENDROOT
TORSDOF 0
ENDMDL
MODEL 8
REMARK VINA RESULT:      -1.4     14.347     14.347
REMARK  0 active torsions:
REMARK  status: ('A' for Active; 'I' for Inactive)
ROOT
HETATM    1  C   LIG     1      15.261  28.085  13.710  1.00  0.00     0.095 C 
HETATM    2  I   LIG     1      15.058  30.164  14.134  1.00  0.00    -0.095 I 
ENDROOT
TORSDOF 0
ENDMDL
MODEL 9
REMARK VINA RESULT:      -1.4      5.215      5.215
REMARK  0 active torsions:
REMARK  status: ('A' for Active; 'I' for Inactive)
ROOT
HETATM    1  C   LIG     1      17.520  36.256  20.804  1.00  0.00     0.095 C 
HETATM    2  I   LIG     1      15.833  34.978  21.052  1.00  0.00    -0.095 I 
ENDROOT
TORSDOF 0
ENDMDL
MODEL 10
REMARK VINA RESULT:      -1.4      5.526      5.526
REMARK  0 active torsions:
REMARK  status: ('A' for Active; 'I' for Inactive)
ROOT
HETATM    1  C   LIG     1      15.680  33.994  20.541  1.00  0.00     0.095 C 
HETATM    2  I   LIG     1      16.627  35.428  21.802  1.00  0.00    -0.095 I 
ENDROOT
TORSDOF 0
ENDMDL
MODEL 11
REMARK VINA RESULT:      -1.4     12.962     12.962
REMARK  0 active torsions:
REMARK  status: ('A' for Active; 'I' for Inactive)
ROOT
HETATM    1  C   LIG     1      13.734  30.675  15.728  1.00  0.00     0.095 C 
HETATM    2  I   LIG     1      15.039  30.088  14.149  1.00  0.00    -0.095 I 
ENDROOT
TORSDOF 0
ENDMDL
MODEL 12
REMARK VINA RESULT:      -1.4      8.795      8.795
REMARK  0 active torsions:
REMARK  status: ('A' for Active; 'I' for Inactive)
ROOT
HETATM    1  C   LIG     1      14.896  32.615  17.581  1.00  0.00     0.095 C 
HETATM    2  I   LIG     1      15.199  32.064  19.617  1.00  0.00    -0.095 I 
ENDROOT
TORSDOF 0
ENDMDL
MODEL 13
REMARK VINA RESULT:      -1.4     12.800     12.800
REMARK  0 active torsions:
REMARK  status: ('A' for Active; 'I' for Inactive)
ROOT
HETATM    1  C   LIG     1      15.817  31.933  14.858  1.00  0.00     0.095 C 
HETATM    2  I   LIG     1      15.036  30.092  14.124  1.00  0.00    -0.095 I 
ENDROOT
TORSDOF 0
ENDMDL
MODEL 14
REMARK VINA RESULT:      -1.4     12.320     12.320
REMARK  0 active torsions:
REMARK  status: ('A' for Active; 'I' for Inactive)
ROOT
HETATM    1  C   LIG     1      27.102  37.928  18.656  1.00  0.00     0.095 C 
HETATM    2  I   LIG     1      28.194  39.456  19.663  1.00  0.00    -0.095 I 
ENDROOT
TORSDOF 0
ENDMDL
MODEL 15
REMARK VINA RESULT:      -1.3     18.817     18.817
REMARK  0 active torsions:
REMARK  status: ('A' for Active; 'I' for Inactive)
ROOT
HETATM    1  C   LIG     1       3.356  42.768  16.720  1.00  0.00     0.095 C 
HETATM    2  I   LIG     1       3.762  44.259  15.252  1.00  0.00    -0.095 I 
ENDROOT
TORSDOF 0
ENDMDL
MODEL 16
REMARK VINA RESULT:      -1.3     10.748     10.748
REMARK  0 active torsions:
REMARK  status: ('A' for Active; 'I' for Inactive)
ROOT
HETATM    1  C   LIG     1      14.429  32.066  17.923  1.00  0.00     0.095 C 
HETATM    2  I   LIG     1      13.479  31.024  16.326  1.00  0.00    -0.095 I 
ENDROOT
TORSDOF 0
ENDMDL
MODEL 17
REMARK VINA RESULT:      -1.3     12.278     12.278
REMARK  0 active torsions:
REMARK  status: ('A' for Active; 'I' for Inactive)
ROOT
HETATM    1  C   LIG     1      14.475  30.416  14.875  1.00  0.00     0.095 C 
HETATM    2  I   LIG     1      13.451  31.223  16.560  1.00  0.00    -0.095 I 
ENDROOT
TORSDOF 0
ENDMDL
MODEL 18
REMARK VINA RESULT:      -1.3     11.450     11.450
REMARK  0 active torsions:
REMARK  status: ('A' for Active; 'I' for Inactive)
ROOT
HETATM    1  C   LIG     1      13.025  30.697  16.046  1.00  0.00     0.095 C 
HETATM    2  I   LIG     1      14.218  32.118  17.094  1.00  0.00    -0.095 I 
ENDROOT
TORSDOF 0
ENDMDL
MODEL 19
REMARK VINA RESULT:      -1.2     19.074     19.074
REMARK  0 active torsions:
REMARK  status: ('A' for Active; 'I' for Inactive)
ROOT
HETATM    1  C   LIG     1       4.078  44.344  14.768  1.00  0.00     0.095 C 
HETATM    2  I   LIG     1       3.075  43.178  16.242  1.00  0.00    -0.095 I 
ENDROOT
TORSDOF 0
ENDMDL
MODEL 20
REMARK VINA RESULT:      -1.2     10.916     10.916
REMARK  0 active torsions:
REMARK  status: ('A' for Active; 'I' for Inactive)
ROOT
HETATM    1  C   LIG     1      15.468  32.569  16.060  1.00  0.00     0.095 C 
HETATM    2  I   LIG     1      13.739  31.532  16.751  1.00  0.00    -0.095 I 
ENDROOT
TORSDOF 0
ENDMDL
