REMARK  0 active torsions:
REMARK  status: ('A' for Active; 'I' for Inactive)
ROOT
HETATM    1  C   LIG     1      -0.786   0.147   0.048  1.00  0.00     0.016 C 
HETATM    2  C   LIG     1       0.662  -0.306  -0.042  1.00  0.00     0.081 C 
HETATM    3 BR   LIG     1       1.843   1.228  -0.098  1.00  0.00    -0.097 Br
ENDROOT
TORSDOF 0
