MODEL 1
REMARK VINA RESULT:      -2.8      0.000      0.000
REMARK  0 active torsions:
REMARK  status: ('A' for Active; 'I' for Inactive)
ROOT
HETATM    1  C   LIG     1      17.953  34.942  26.166  1.00  0.00     0.016 C 
HETATM    2  C   LIG     1      18.271  36.362  26.605  1.00  0.00     0.081 C 
HETATM    3 BR   LIG     1      17.494  37.636  25.372  1.00  0.00    -0.097 Br
ENDROOT
TORSDOF 0
ENDMDL
MODEL 2
REMARK VINA RESULT:      -2.7      1.992      2.338
REMARK  0 active torsions:
REMARK  status: ('A' for Active; 'I' for Inactive)
ROOT
HETATM    1  C   LIG     1      17.748  37.665  25.263  1.00  0.00     0.016 C 
HETATM    2  C   LIG     1      18.392  36.768  26.308  1.00  0.00     0.081 C 
HETATM    3 BR   LIG     1      17.781  34.943  26.095  1.00  0.00    -0.097 Br
ENDROOT
TORSDOF 0
ENDMDL
MODEL 3
REMARK VINA RESULT:      -2.5      2.346      2.485
REMARK  0 active torsions:
REMARK  status: ('A' for Active; 'I' for Inactive)
ROOT
HETATM    1  C   LIG     1      17.099  37.429  24.133  1.00  0.00     0.016 C 
HETATM    2  C   LIG     1      17.386  37.834  25.570  1.00  0.00     0.081 C 
HETATM    3 BR   LIG     1      18.300  36.402  26.500  1.00  0.00    -0.097 Br
ENDROOT
TORSDOF 0
ENDMDL
MODEL 4
REMARK VINA RESULT:      -2.4      1.561      1.990
REMARK  0 active torsions:
REMARK  status: ('A' for Active; 'I' for Inactive)
ROOT
HETATM    1  C   LIG     1      18.417  36.256  26.712  1.00  0.00     0.016 C 
HETATM    2  C   LIG     1      17.910  34.923  26.187  1.00  0.00     0.081 C 
HETATM    3 BR   LIG     1      17.177  35.139  24.407  1.00  0.00    -0.097 Br
ENDROOT
TORSDOF 0
ENDMDL
MODEL 5
REMARK VINA RESULT:      -2.4      1.629      1.917
REMARK  0 active torsions:
REMARK  status: ('A' for Active; 'I' for Inactive)
ROOT
HETATM    1  C   LIG     1      18.380  36.798  25.986  1.00  0.00     0.016 C 
HETATM    2  C   LIG     1      17.370  37.842  25.539  1.00  0.00     0.081 C 
HETATM    3 BR   LIG     1      17.191  37.821  23.610  1.00  0.00    -0.097 Br
ENDROOT
TORSDOF 0
ENDMDL
MODEL 6
REMARK VINA RESULT:      -2.4      6.431      6.593
REMARK  0 active torsions:
REMARK  status: ('A' for Active; 'I' for Inactive)
ROOT
HETATM    1  C   LIG     1      18.611  39.343  21.278  1.00  0.00     0.016 C 
HETATM    2  C   LIG     1      19.511  38.913  20.131  1.00  0.00     0.081 C 
HETATM    3 BR   LIG     1      19.027  37.137  19.528  1.00  0.00    -0.097 Br
ENDROOT
TORSDOF 0
ENDMDL
MODEL 7
REMARK VINA RESULT:      -2.3      6.373      6.410
REMARK  0 active torsions:
REMARK  status: ('A' for Active; 'I' for Inactive)
ROOT
HETATM    1  C   LIG     1      18.031  36.561  20.417  1.00  0.00     0.016 C 
HETATM    2  C   LIG     1      19.126  37.054  19.486  1.00  0.00     0.081 C 
HETATM    3 BR   LIG     1      19.610  38.877  19.925  1.00  0.00    -0.097 Br
ENDROOT
TORSDOF 0
ENDMDL
MODEL 8
REMARK VINA RESULT:      -2.2      4.977      4.977
REMARK  0 active torsions:
REMARK  status: ('A' for Active; 'I' for Inactive)
ROOT
HETATM    1  C   LIG     1      17.589  36.309  20.786  1.00  0.00     0.016 C 
HETATM    2  C   LIG     1      17.284  37.409  21.789  1.00  0.00     0.081 C 
HETATM    3 BR   LIG     1      18.375  38.968  21.427  1.00  0.00    -0.097 Br
ENDROOT
TORSDOF 0
ENDMDL
MODEL 9
REMARK VINA RESULT:      -2.2     12.930     13.001
REMARK  0 active torsions:
REMARK  status: ('A' for Active; 'I' for Inactive)
ROOT
HETATM    1  C   LIG     1      13.017  30.655  15.981  1.00  0.00     0.016 C 
HETATM    2  C   LIG     1      14.430  30.997  15.538  1.00  0.00     0.081 C 
HETATM    3 BR   LIG     1      14.974  29.846  14.078  1.00  0.00    -0.097 Br
ENDROOT
TORSDOF 0
ENDMDL
MODEL 10
REMARK VINA RESULT:      -2.1      5.293      5.454
REMARK  0 active torsions:
REMARK  status: ('A' for Active; 'I' for Inactive)
ROOT
HETATM    1  C   LIG     1      17.723  38.726  22.648  1.00  0.00     0.016 C 
HETATM    2  C   LIG     1      17.985  38.092  21.291  1.00  0.00     0.081 C 
HETATM    3 BR   LIG     1      19.274  39.143  20.298  1.00  0.00    -0.097 Br
ENDROOT
TORSDOF 0
ENDMDL
MODEL 11
REMARK VINA RESULT:      -2.1     13.448     13.493
REMARK  0 active torsions:
REMARK  status: ('A' for Active; 'I' for Inactive)
ROOT
HETATM    1  C   LIG     1      15.267  30.659  13.773  1.00  0.00     0.016 C 
HETATM    2  C   LIG     1      14.197  29.761  14.373  1.00  0.00     0.081 C 
HETATM    3 BR   LIG     1      13.299  30.666  15.830  1.00  0.00    -0.097 Br
ENDROOT
TORSDOF 0
ENDMDL
MODEL 12
REMARK VINA RESULT:      -2.1      5.506      5.789
REMARK  0 active torsions:
REMARK  status: ('A' for Active; 'I' for Inactive)
ROOT
HETATM    1  C   LIG     1      15.550  33.439  20.275  1.00  0.00     0.016 C 
HETATM    2  C   LIG     1      15.224  34.481  21.332  1.00  0.00     0.081 C 
HETATM    3 BR   LIG     1      16.854  35.245  22.047  1.00  0.00    -0.097 Br
ENDROOT
TORSDOF 0
ENDMDL
MODEL 13
REMARK VINA RESULT:      -2.1      5.243      5.411
REMARK  0 active torsions:
REMARK  status: ('A' for Active; 'I' for Inactive)
ROOT
HETATM    1  C   LIG     1      18.599  39.000  21.318  1.00  0.00     0.016 C 
HETATM    2  C   LIG     1      17.558  38.045  21.879  1.00  0.00     0.081 C 
HETATM    3 BR   LIG     1      17.559  36.387  20.879  1.00  0.00    -0.097 Br
ENDROOT
TORSDOF 0
ENDMDL
MODEL 14
REMARK VINA RESULT:      -2.1      2.504      2.742
REMARK  0 active torsions:
REMARK  status: ('A' for Active; 'I' for Inactive)
ROOT
HETATM    1  C   LIG     1      16.923  35.259  22.667  1.00  0.00     0.016 C 
HETATM    2  C   LIG     1      17.123  35.235  24.174  1.00  0.00     0.081 C 
HETATM    3 BR   LIG     1      17.319  37.038  24.853  1.00  0.00    -0.097 Br
ENDROOT
TORSDOF 0
ENDMDL
MODEL 15
REMARK VINA RESULT:      -2.1      9.420      9.743
REMARK  0 active torsions:
REMARK  status: ('A' for Active; 'I' for Inactive)
ROOT
HETATM    1  C   LIG     1      13.693  31.814  17.157  1.00  0.00     0.016 C 
HETATM    2  C   LIG     1      14.934  32.492  17.714  1.00  0.00     0.081 C 
HETATM    3 BR   LIG     1      15.178  32.017  19.576  1.00  0.00    -0.097 Br
ENDROOT
TORSDOF 0
ENDMDL
MODEL 16
REMARK VINA RESULT:      -2.0      4.440      4.589
REMARK  0 active torsions:
REMARK  status: ('A' for Active; 'I' for Inactive)
ROOT
HETATM    1  C   LIG     1      16.827  38.452  22.576  1.00  0.00     0.016 C 
HETATM    2  C   LIG     1      16.785  36.958  22.856  1.00  0.00     0.081 C 
HETATM    3 BR   LIG     1      17.135  35.962  21.232  1.00  0.00    -0.097 Br
ENDROOT
TORSDOF 0
ENDMDL
MODEL 17
REMARK VINA RESULT:      -2.0     13.277     13.343
REMARK  0 active torsions:
REMARK  status: ('A' for Active; 'I' for Inactive)
ROOT
HETATM    1  C   LIG     1      14.292  29.924  14.451  1.00  0.00     0.016 C 
HETATM    2  C   LIG     1      15.310  30.669  13.603  1.00  0.00     0.081 C 
HETATM    3 BR   LIG     1      16.101  32.114  14.620  1.00  0.00    -0.097 Br
ENDROOT
TORSDOF 0
ENDMDL
MODEL 18
REMARK VINA RESULT:      -1.9      3.869      3.997
REMARK  0 active torsions:
REMARK  status: ('A' for Active; 'I' for Inactive)
ROOT
HETATM    1  C   LIG     1      17.143  35.103  23.985  1.00  0.00     0.016 C 
HETATM    2  C   LIG     1      16.868  35.979  22.773  1.00  0.00     0.081 C 
HETATM    3 BR   LIG     1      16.237  34.900  21.294  1.00  0.00    -0.097 Br
ENDROOT
TORSDOF 0
ENDMDL
MODEL 19
REMARK VINA RESULT:      -1.9      9.011      9.372
REMARK  0 active torsions:
REMARK  status: ('A' for Active; 'I' for Inactive)
ROOT
HETATM    1  C   LIG     1      15.398  32.241  19.453  1.00  0.00     0.016 C 
HETATM    2  C   LIG     1      14.508  31.969  18.252  1.00  0.00     0.081 C 
HETATM    3 BR   LIG     1      15.066  33.049  16.744  1.00  0.00    -0.097 Br
ENDROOT
TORSDOF 0
ENDMDL
MODEL 20
REMARK VINA RESULT:      -1.9     12.003     12.036
REMARK  0 active torsions:
REMARK  status: ('A' for Active; 'I' for Inactive)
ROOT
HETATM    1  C   LIG     1      13.000  30.618  15.940  1.00  0.00     0.016 C 
HETATM    2  C   LIG     1      14.394  30.869  15.388  1.00  0.00     0.081 C 
HETATM    3 BR   LIG     1      15.192  32.406  16.255  1.00  0.00    -0.097 Br
ENDROOT
TORSDOF 0
ENDMDL
