REMARK  0 active torsions:
REMARK  status: ('A' for Active; 'I' for Inactive)
ROOT
HETATM    1  C   LIG     1      -0.001  -0.190   0.009  1.00  0.00     0.170 C 
HETATM    2 BR   LIG     1       1.585   0.915  -0.032  1.00  0.00    -0.085 Br
HETATM    3 BR   LIG     1      -1.572   0.935  -0.050  1.00  0.00    -0.085 Br
ENDROOT
TORSDOF 0
