MODEL 1
REMARK VINA RESULT:      -2.8      0.000      0.000
REMARK  0 active torsions:
REMARK  status: ('A' for Active; 'I' for Inactive)
ROOT
HETATM    1  C   LIG     1      18.411  36.775  26.306  1.00  0.00     0.170 C 
HETATM    2 BR   LIG     1      17.808  34.950  26.094  1.00  0.00    -0.085 Br
HETATM    3 BR   LIG     1      17.369  37.935  25.164  1.00  0.00    -0.085 Br
ENDROOT
TORSDOF 0
ENDMDL
MODEL 2
REMARK VINA RESULT:      -2.8      0.024      2.578
REMARK  0 active torsions:
REMARK  status: ('A' for Active; 'I' for Inactive)
ROOT
HETATM    1  C   LIG     1      18.401  36.776  26.293  1.00  0.00     0.170 C 
HETATM    2 BR   LIG     1      17.378  37.941  25.138  1.00  0.00    -0.085 Br
HETATM    3 BR   LIG     1      17.786  34.956  26.081  1.00  0.00    -0.085 Br
ENDROOT
TORSDOF 0
ENDMDL
MODEL 3
REMARK VINA RESULT:      -2.5      1.746      2.616
REMARK  0 active torsions:
REMARK  status: ('A' for Active; 'I' for Inactive)
ROOT
HETATM    1  C   LIG     1      17.326  37.977  25.430  1.00  0.00     0.170 C 
HETATM    2 BR   LIG     1      16.854  37.425  23.638  1.00  0.00    -0.085 Br
HETATM    3 BR   LIG     1      18.314  36.562  26.301  1.00  0.00    -0.085 Br
ENDROOT
TORSDOF 0
ENDMDL
MODEL 4
REMARK VINA RESULT:      -2.5      2.355      2.404
REMARK  0 active torsions:
REMARK  status: ('A' for Active; 'I' for Inactive)
ROOT
HETATM    1  C   LIG     1      17.224  36.291  24.491  1.00  0.00     0.170 C 
HETATM    2 BR   LIG     1      17.632  35.015  25.885  1.00  0.00    -0.085 Br
HETATM    3 BR   LIG     1      16.937  35.355  22.824  1.00  0.00    -0.085 Br
ENDROOT
TORSDOF 0
ENDMDL
MODEL 5
REMARK VINA RESULT:      -2.4      5.533      6.167
REMARK  0 active torsions:
REMARK  status: ('A' for Active; 'I' for Inactive)
ROOT
HETATM    1  C   LIG     1      19.278  38.945  20.184  1.00  0.00     0.170 C 
HETATM    2 BR   LIG     1      18.326  39.124  21.858  1.00  0.00    -0.085 Br
HETATM    3 BR   LIG     1      19.044  37.153  19.498  1.00  0.00    -0.085 Br
ENDROOT
TORSDOF 0
ENDMDL
MODEL 6
REMARK VINA RESULT:      -2.4      5.550      5.944
REMARK  0 active torsions:
REMARK  status: ('A' for Active; 'I' for Inactive)
ROOT
HETATM    1  C   LIG     1      19.300  38.924  20.179  1.00  0.00     0.170 C 
HETATM    2 BR   LIG     1      19.019  37.132  19.508  1.00  0.00    -0.085 Br
HETATM    3 BR   LIG     1      18.338  39.148  21.841  1.00  0.00    -0.085 Br
ENDROOT
TORSDOF 0
ENDMDL
MODEL 7
REMARK VINA RESULT:      -2.3      2.566      3.645
REMARK  0 active torsions:
REMARK  status: ('A' for Active; 'I' for Inactive)
ROOT
HETATM    1  C   LIG     1      16.687  37.431  23.573  1.00  0.00     0.170 C 
HETATM    2 BR   LIG     1      17.337  38.748  22.315  1.00  0.00    -0.085 Br
HETATM    3 BR   LIG     1      17.422  37.795  25.324  1.00  0.00    -0.085 Br
ENDROOT
TORSDOF 0
ENDMDL
MODEL 8
REMARK VINA RESULT:      -2.3      2.522      3.030
REMARK  0 active torsions:
REMARK  status: ('A' for Active; 'I' for Inactive)
ROOT
HETATM    1  C   LIG     1      16.791  37.339  23.591  1.00  0.00     0.170 C 
HETATM    2 BR   LIG     1      17.432  37.782  25.361  1.00  0.00    -0.085 Br
HETATM    3 BR   LIG     1      17.262  38.755  22.362  1.00  0.00    -0.085 Br
ENDROOT
TORSDOF 0
ENDMDL
MODEL 9
REMARK VINA RESULT:      -2.2      5.639      6.226
REMARK  0 active torsions:
REMARK  status: ('A' for Active; 'I' for Inactive)
ROOT
HETATM    1  C   LIG     1      18.889  37.215  19.721  1.00  0.00     0.170 C 
HETATM    2 BR   LIG     1      19.170  39.008  20.389  1.00  0.00    -0.085 Br
HETATM    3 BR   LIG     1      17.556  36.326  20.802  1.00  0.00    -0.085 Br
ENDROOT
TORSDOF 0
ENDMDL
MODEL 10
REMARK VINA RESULT:      -2.2      9.504      9.679
REMARK  0 active torsions:
REMARK  status: ('A' for Active; 'I' for Inactive)
ROOT
HETATM    1  C   LIG     1      14.987  32.501  17.960  1.00  0.00     0.170 C 
HETATM    2 BR   LIG     1      15.055  31.768  19.747  1.00  0.00    -0.085 Br
HETATM    3 BR   LIG     1      13.756  31.467  16.886  1.00  0.00    -0.085 Br
ENDROOT
TORSDOF 0
ENDMDL
MODEL 11
REMARK VINA RESULT:      -2.2      5.113      5.311
REMARK  0 active torsions:
REMARK  status: ('A' for Active; 'I' for Inactive)
ROOT
HETATM    1  C   LIG     1      17.983  37.648  21.084  1.00  0.00     0.170 C 
HETATM    2 BR   LIG     1      16.921  36.166  21.727  1.00  0.00    -0.085 Br
HETATM    3 BR   LIG     1      18.994  37.091  19.532  1.00  0.00    -0.085 Br
ENDROOT
TORSDOF 0
ENDMDL
MODEL 12
REMARK VINA RESULT:      -2.1      4.419      4.419
REMARK  0 active torsions:
REMARK  status: ('A' for Active; 'I' for Inactive)
ROOT
HETATM    1  C   LIG     1      17.128  37.533  22.338  1.00  0.00     0.170 C 
HETATM    2 BR   LIG     1      17.133  36.002  21.157  1.00  0.00    -0.085 Br
HETATM    3 BR   LIG     1      18.197  38.946  21.565  1.00  0.00    -0.085 Br
ENDROOT
TORSDOF 0
ENDMDL
MODEL 13
REMARK VINA RESULT:      -2.1     13.259     13.400
REMARK  0 active torsions:
REMARK  status: ('A' for Active; 'I' for Inactive)
ROOT
HETATM    1  C   LIG     1      13.678  29.762  14.511  1.00  0.00     0.170 C 
HETATM    2 BR   LIG     1      13.134  30.745  16.085  1.00  0.00    -0.085 Br
HETATM    3 BR   LIG     1      15.302  30.532  13.800  1.00  0.00    -0.085 Br
ENDROOT
TORSDOF 0
ENDMDL
MODEL 14
REMARK VINA RESULT:      -2.1      3.538      4.308
REMARK  0 active torsions:
REMARK  status: ('A' for Active; 'I' for Inactive)
ROOT
HETATM    1  C   LIG     1      16.877  36.867  23.237  1.00  0.00     0.170 C 
HETATM    2 BR   LIG     1      17.358  38.430  22.206  1.00  0.00    -0.085 Br
HETATM    3 BR   LIG     1      16.946  35.301  22.105  1.00  0.00    -0.085 Br
ENDROOT
TORSDOF 0
ENDMDL
MODEL 15
REMARK VINA RESULT:      -2.1     12.712     12.846
REMARK  0 active torsions:
REMARK  status: ('A' for Active; 'I' for Inactive)
ROOT
HETATM    1  C   LIG     1      13.364  30.242  15.169  1.00  0.00     0.170 C 
HETATM    2 BR   LIG     1      14.987  30.121  14.124  1.00  0.00    -0.085 Br
HETATM    3 BR   LIG     1      13.671  31.370  16.709  1.00  0.00    -0.085 Br
ENDROOT
TORSDOF 0
ENDMDL
MODEL 16
REMARK VINA RESULT:      -2.1      7.270      7.971
REMARK  0 active torsions:
REMARK  status: ('A' for Active; 'I' for Inactive)
ROOT
HETATM    1  C   LIG     1      19.429  38.946  19.116  1.00  0.00     0.170 C 
HETATM    2 BR   LIG     1      18.837  39.405  17.333  1.00  0.00    -0.085 Br
HETATM    3 BR   LIG     1      18.978  37.104  19.490  1.00  0.00    -0.085 Br
ENDROOT
TORSDOF 0
ENDMDL
MODEL 17
REMARK VINA RESULT:      -2.1      4.150      4.843
REMARK  0 active torsions:
REMARK  status: ('A' for Active; 'I' for Inactive)
ROOT
HETATM    1  C   LIG     1      17.484  37.524  21.610  1.00  0.00     0.170 C 
HETATM    2 BR   LIG     1      18.507  39.153  21.414  1.00  0.00    -0.085 Br
HETATM    3 BR   LIG     1      16.071  37.801  22.899  1.00  0.00    -0.085 Br
ENDROOT
TORSDOF 0
ENDMDL
MODEL 18
REMARK VINA RESULT:      -2.1      5.951      6.182
REMARK  0 active torsions:
REMARK  status: ('A' for Active; 'I' for Inactive)
ROOT
HETATM    1  C   LIG     1      15.105  34.409  21.326  1.00  0.00     0.170 C 
HETATM    2 BR   LIG     1      16.790  35.187  21.867  1.00  0.00    -0.085 Br
HETATM    3 BR   LIG     1      15.428  33.006  20.035  1.00  0.00    -0.085 Br
ENDROOT
TORSDOF 0
ENDMDL
MODEL 19
REMARK VINA RESULT:      -2.0     12.979     13.021
REMARK  0 active torsions:
REMARK  status: ('A' for Active; 'I' for Inactive)
ROOT
HETATM    1  C   LIG     1      15.742  31.494  13.554  1.00  0.00     0.170 C 
HETATM    2 BR   LIG     1      15.027  29.775  14.075  1.00  0.00    -0.085 Br
HETATM    3 BR   LIG     1      16.366  32.435  15.124  1.00  0.00    -0.085 Br
ENDROOT
TORSDOF 0
ENDMDL
MODEL 20
REMARK VINA RESULT:      -2.0     11.234     11.411
REMARK  0 active torsions:
REMARK  status: ('A' for Active; 'I' for Inactive)
ROOT
HETATM    1  C   LIG     1      14.489  32.378  16.778  1.00  0.00     0.170 C 
HETATM    2 BR   LIG     1      15.988  32.503  15.564  1.00  0.00    -0.085 Br
HETATM    3 BR   LIG     1      13.363  30.894  16.262  1.00  0.00    -0.085 Br
ENDROOT
TORSDOF 0
ENDMDL
