MODEL 1
REMARK VINA RESULT:      -2.7      0.000      0.000
REMARK  0 active torsions:
REMARK  status: ('A' for Active; 'I' for Inactive)
ROOT
HETATM    1 CL   LIG     1      17.313  37.971  25.519  1.00  0.00    -0.119 Cl
HETATM    2  C   LIG     1      18.421  36.806  26.277  1.00  0.00     0.199 C 
HETATM    3 BR   LIG     1      17.739  35.013  26.030  1.00  0.00    -0.080 Br
ENDROOT
TORSDOF 0
ENDMDL
MODEL 2
REMARK VINA RESULT:      -2.7      2.504      2.504
REMARK  0 active torsions:
REMARK  status: ('A' for Active; 'I' for Inactive)
ROOT
HETATM    1 CL   LIG     1      18.123  34.786  26.218  1.00  0.00    -0.119 Cl
HETATM    2  C   LIG     1      18.385  36.497  26.621  1.00  0.00     0.199 C 
HETATM    3 BR   LIG     1      17.468  37.611  25.334  1.00  0.00    -0.080 Br
ENDROOT
TORSDOF 0
ENDMDL
MODEL 3
REMARK VINA RESULT:      -2.7      2.495      2.495
REMARK  0 active torsions:
REMARK  status: ('A' for Active; 'I' for Inactive)
ROOT
HETATM    1 CL   LIG     1      17.198  34.987  24.028  1.00  0.00    -0.119 Cl
HETATM    2  C   LIG     1      17.445  34.924  25.787  1.00  0.00     0.199 C 
HETATM    3 BR   LIG     1      18.317  36.547  26.375  1.00  0.00    -0.080 Br
ENDROOT
TORSDOF 0
ENDMDL
MODEL 4
REMARK VINA RESULT:      -2.5      1.816      1.816
REMARK  0 active torsions:
REMARK  status: ('A' for Active; 'I' for Inactive)
ROOT
HETATM    1 CL   LIG     1      16.912  37.328  23.727  1.00  0.00    -0.119 Cl
HETATM    2  C   LIG     1      17.324  37.921  25.351  1.00  0.00     0.199 C 
HETATM    3 BR   LIG     1      18.316  36.560  26.302  1.00  0.00    -0.080 Br
ENDROOT
TORSDOF 0
ENDMDL
MODEL 5
REMARK VINA RESULT:      -2.3      6.597      6.597
REMARK  0 active torsions:
REMARK  status: ('A' for Active; 'I' for Inactive)
ROOT
HETATM    1 CL   LIG     1      19.136  37.054  19.379  1.00  0.00    -0.119 Cl
HETATM    2  C   LIG     1      19.608  38.726  19.761  1.00  0.00     0.199 C 
HETATM    3 BR   LIG     1      18.684  39.307  21.358  1.00  0.00    -0.080 Br
ENDROOT
TORSDOF 0
ENDMDL
MODEL 6
REMARK VINA RESULT:      -2.3      2.944      2.944
REMARK  0 active torsions:
REMARK  status: ('A' for Active; 'I' for Inactive)
ROOT
HETATM    1 CL   LIG     1      17.050  35.204  23.272  1.00  0.00    -0.119 Cl
HETATM    2  C   LIG     1      17.032  36.924  23.722  1.00  0.00     0.199 C 
HETATM    3 BR   LIG     1      17.742  37.130  25.509  1.00  0.00    -0.080 Br
ENDROOT
TORSDOF 0
ENDMDL
MODEL 7
REMARK VINA RESULT:      -2.2      3.466      3.466
REMARK  0 active torsions:
REMARK  status: ('A' for Active; 'I' for Inactive)
ROOT
HETATM    1 CL   LIG     1      17.338  38.121  25.500  1.00  0.00    -0.119 Cl
HETATM    2  C   LIG     1      16.629  37.599  23.956  1.00  0.00     0.199 C 
HETATM    3 BR   LIG     1      17.186  38.804  22.550  1.00  0.00    -0.080 Br
ENDROOT
TORSDOF 0
ENDMDL
MODEL 8
REMARK VINA RESULT:      -2.2      2.984      2.984
REMARK  0 active torsions:
REMARK  status: ('A' for Active; 'I' for Inactive)
ROOT
HETATM    1 CL   LIG     1      17.454  34.902  25.316  1.00  0.00    -0.119 Cl
HETATM    2  C   LIG     1      17.272  36.560  24.701  1.00  0.00     0.199 C 
HETATM    3 BR   LIG     1      16.824  36.506  22.821  1.00  0.00    -0.080 Br
ENDROOT
TORSDOF 0
ENDMDL
MODEL 9
REMARK VINA RESULT:      -2.2      7.596      7.596
REMARK  0 active torsions:
REMARK  status: ('A' for Active; 'I' for Inactive)
ROOT
HETATM    1 CL   LIG     1      18.803  39.276  17.472  1.00  0.00    -0.119 Cl
HETATM    2  C   LIG     1      19.342  38.911  19.126  1.00  0.00     0.199 C 
HETATM    3 BR   LIG     1      18.978  37.055  19.527  1.00  0.00    -0.080 Br
ENDROOT
TORSDOF 0
ENDMDL
MODEL 10
REMARK VINA RESULT:      -2.2      5.351      5.351
REMARK  0 active torsions:
REMARK  status: ('A' for Active; 'I' for Inactive)
ROOT
HETATM    1 CL   LIG     1      16.815  39.009  22.516  1.00  0.00    -0.119 Cl
HETATM    2  C   LIG     1      17.865  38.057  21.443  1.00  0.00     0.199 C 
HETATM    3 BR   LIG     1      19.060  39.244  20.492  1.00  0.00    -0.080 Br
ENDROOT
TORSDOF 0
ENDMDL
MODEL 11
REMARK VINA RESULT:      -2.2      9.506      9.506
REMARK  0 active torsions:
REMARK  status: ('A' for Active; 'I' for Inactive)
ROOT
HETATM    1 CL   LIG     1      14.834  31.134  20.074  1.00  0.00    -0.119 Cl
HETATM    2  C   LIG     1      15.065  32.335  18.783  1.00  0.00     0.199 C 
HETATM    3 BR   LIG     1      13.991  31.847  17.250  1.00  0.00    -0.080 Br
ENDROOT
TORSDOF 0
ENDMDL
MODEL 12
REMARK VINA RESULT:      -2.1      4.770      4.770
REMARK  0 active torsions:
REMARK  status: ('A' for Active; 'I' for Inactive)
ROOT
HETATM    1 CL   LIG     1      17.014  35.200  22.728  1.00  0.00    -0.119 Cl
HETATM    2  C   LIG     1      17.175  36.277  21.322  1.00  0.00     0.199 C 
HETATM    3 BR   LIG     1      17.496  38.085  21.929  1.00  0.00    -0.080 Br
ENDROOT
TORSDOF 0
ENDMDL
MODEL 13
REMARK VINA RESULT:      -2.1      5.216      5.216
REMARK  0 active torsions:
REMARK  status: ('A' for Active; 'I' for Inactive)
ROOT
HETATM    1 CL   LIG     1      19.133  39.418  20.282  1.00  0.00    -0.119 Cl
HETATM    2  C   LIG     1      18.480  39.260  21.928  1.00  0.00     0.199 C 
HETATM    3 BR   LIG     1      17.282  37.743  22.004  1.00  0.00    -0.080 Br
ENDROOT
TORSDOF 0
ENDMDL
MODEL 14
REMARK VINA RESULT:      -2.1     13.016     13.016
REMARK  0 active torsions:
REMARK  status: ('A' for Active; 'I' for Inactive)
ROOT
HETATM    1 CL   LIG     1      12.983  30.561  16.052  1.00  0.00    -0.119 Cl
HETATM    2  C   LIG     1      14.557  31.055  15.389  1.00  0.00     0.199 C 
HETATM    3 BR   LIG     1      15.100  29.805  14.017  1.00  0.00    -0.080 Br
ENDROOT
TORSDOF 0
ENDMDL
MODEL 15
REMARK VINA RESULT:      -2.1      9.835      9.835
REMARK  0 active torsions:
REMARK  status: ('A' for Active; 'I' for Inactive)
ROOT
HETATM    1 CL   LIG     1      13.835  31.198  17.015  1.00  0.00    -0.119 Cl
HETATM    2  C   LIG     1      14.826  32.358  17.928  1.00  0.00     0.199 C 
HETATM    3 BR   LIG     1      15.019  31.745  19.752  1.00  0.00    -0.080 Br
ENDROOT
TORSDOF 0
ENDMDL
MODEL 16
REMARK VINA RESULT:      -2.1      4.097      4.097
REMARK  0 active torsions:
REMARK  status: ('A' for Active; 'I' for Inactive)
ROOT
HETATM    1 CL   LIG     1      17.795  38.131  21.610  1.00  0.00    -0.119 Cl
HETATM    2  C   LIG     1      16.567  37.148  22.436  1.00  0.00     0.199 C 
HETATM    3 BR   LIG     1      16.882  35.276  22.065  1.00  0.00    -0.080 Br
ENDROOT
TORSDOF 0
ENDMDL
MODEL 17
REMARK VINA RESULT:      -2.0      4.313      4.313
REMARK  0 active torsions:
REMARK  status: ('A' for Active; 'I' for Inactive)
ROOT
HETATM    1 CL   LIG     1      17.194  35.015  23.939  1.00  0.00    -0.119 Cl
HETATM    2  C   LIG     1      16.796  35.963  22.488  1.00  0.00     0.199 C 
HETATM    3 BR   LIG     1      16.121  34.783  21.113  1.00  0.00    -0.080 Br
ENDROOT
TORSDOF 0
ENDMDL
MODEL 18
REMARK VINA RESULT:      -2.0      6.023      6.023
REMARK  0 active torsions:
REMARK  status: ('A' for Active; 'I' for Inactive)
ROOT
HETATM    1 CL   LIG     1      15.598  33.365  20.285  1.00  0.00    -0.119 Cl
HETATM    2  C   LIG     1      15.941  35.090  20.545  1.00  0.00     0.199 C 
HETATM    3 BR   LIG     1      16.868  35.317  22.227  1.00  0.00    -0.080 Br
ENDROOT
TORSDOF 0
ENDMDL
MODEL 19
REMARK VINA RESULT:      -2.0     14.377     14.377
REMARK  0 active torsions:
REMARK  status: ('A' for Active; 'I' for Inactive)
ROOT
HETATM    1 CL   LIG     1      15.216  27.876  13.697  1.00  0.00    -0.119 Cl
HETATM    2  C   LIG     1      15.315  29.650  13.736  1.00  0.00     0.199 C 
HETATM    3 BR   LIG     1      14.073  30.336  15.050  1.00  0.00    -0.080 Br
ENDROOT
TORSDOF 0
ENDMDL
MODEL 20
REMARK VINA RESULT:      -1.9     11.523     11.523
REMARK  0 active torsions:
REMARK  status: ('A' for Active; 'I' for Inactive)
ROOT
HETATM    1 CL   LIG     1      13.027  30.663  16.020  1.00  0.00    -0.119 Cl
HETATM    2  C   LIG     1      13.798  31.809  17.139  1.00  0.00     0.199 C 
HETATM    3 BR   LIG     1      15.343  32.600  16.288  1.00  0.00    -0.080 Br
ENDROOT
TORSDOF 0
ENDMDL
