REMARK  0 active torsions:
REMARK  status: ('A' for Active; 'I' for Inactive)
ROOT
HETATM    1 CL   LIG     1      -1.320   1.080  -0.042  1.00  0.00    -0.119 Cl
HETATM    2  C   LIG     1      -0.053  -0.166   0.011  1.00  0.00     0.199 C 
HETATM    3 BR   LIG     1       1.685   0.678  -0.074  1.00  0.00    -0.080 Br
ENDROOT
TORSDOF 0
