MODEL 1
REMARK VINA RESULT:      -4.9      0.000      0.000
REMARK  1 active torsions:
REMARK  status: ('A' for Active; 'I' for Inactive)
REMARK    1  A    between atoms: C_3  and  C_4 
ROOT
HETATM    1 CL   LIG     1      17.344  35.456  15.878  1.00  0.00    -0.083 Cl
HETATM    2  C   LIG     1      16.474  33.956  15.571  1.00  0.00     0.048 A 
HETATM    3  C   LIG     1      16.701  33.193  14.408  1.00  0.00     0.019 A 
HETATM    4  C   LIG     1      15.998  31.984  14.220  1.00  0.00     0.070 A 
HETATM    5 CL   LIG     1      16.239  31.028  12.752  1.00  0.00    -0.081 Cl
HETATM    6  C   LIG     1      15.077  31.547  15.193  1.00  0.00     0.078 A 
HETATM    7 CL   LIG     1      14.190  30.039  14.965  1.00  0.00    -0.081 Cl
HETATM    8  C   LIG     1      14.862  32.318  16.347  1.00  0.00     0.059 A 
HETATM    9 CL   LIG     1      13.722  31.809  17.587  1.00  0.00    -0.082 Cl
HETATM   10  C   LIG     1      15.559  33.514  16.528  1.00  0.00     0.050 A 
ENDROOT
BRANCH   3  11
HETATM   11  C   LIG     1      17.672  33.660  13.394  1.00  0.00    -0.021 A 
HETATM   12  C   LIG     1      17.226  34.315  12.238  1.00  0.00     0.014 A 
HETATM   13  C   LIG     1      18.144  34.755  11.282  1.00  0.00     0.026 A 
HETATM   14  C   LIG     1      19.514  34.546  11.469  1.00  0.00     0.055 A 
HETATM   15  C   LIG     1      19.968  33.890  12.626  1.00  0.00     0.056 A 
HETATM   16 CL   LIG     1      20.639  35.113  10.243  1.00  0.00    -0.083 Cl
HETATM   17 CL   LIG     1      21.682  33.606  12.902  1.00  0.00    -0.083 Cl
HETATM   18  C   LIG     1      19.046  33.449  13.584  1.00  0.00     0.038 A 
ENDBRANCH   3  11
TORSDOF 1
ENDMDL
MODEL 2
REMARK VINA RESULT:      -4.8     13.928     15.019
REMARK  1 active torsions:
REMARK  status: ('A' for Active; 'I' for Inactive)
REMARK    1  A    between atoms: C_3  and  C_4 
ROOT
HETATM    1 CL   LIG     1      23.253  23.186  21.259  1.00  0.00    -0.083 Cl
HETATM    2  C   LIG     1      23.787  22.189  19.910  1.00  0.00     0.048 A 
HETATM    3  C   LIG     1      25.108  22.249  19.422  1.00  0.00     0.019 A 
HETATM    4  C   LIG     1      25.495  21.410  18.355  1.00  0.00     0.070 A 
HETATM    5 CL   LIG     1      27.136  21.494  17.703  1.00  0.00    -0.081 Cl
HETATM    6  C   LIG     1      24.564  20.519  17.787  1.00  0.00     0.078 A 
HETATM    7 CL   LIG     1      25.038  19.469  16.450  1.00  0.00    -0.081 Cl
HETATM    8  C   LIG     1      23.251  20.470  18.284  1.00  0.00     0.059 A 
HETATM    9 CL   LIG     1      22.057  19.372  17.604  1.00  0.00    -0.082 Cl
HETATM   10  C   LIG     1      22.872  21.302  19.339  1.00  0.00     0.050 A 
ENDROOT
BRANCH   3  11
HETATM   11  C   LIG     1      26.079  23.187  20.028  1.00  0.00    -0.021 A 
HETATM   12  C   LIG     1      26.674  22.887  21.261  1.00  0.00     0.014 A 
HETATM   13  C   LIG     1      27.591  23.773  21.832  1.00  0.00     0.026 A 
HETATM   14  C   LIG     1      27.922  24.965  21.179  1.00  0.00     0.055 A 
HETATM   15  C   LIG     1      27.329  25.271  19.941  1.00  0.00     0.056 A 
HETATM   16 CL   LIG     1      29.079  26.056  21.928  1.00  0.00    -0.083 Cl
HETATM   17 CL   LIG     1      27.716  26.758  19.086  1.00  0.00    -0.083 Cl
HETATM   18  C   LIG     1      26.410  24.381  19.371  1.00  0.00     0.038 A 
ENDBRANCH   3  11
TORSDOF 1
ENDMDL
MODEL 3
REMARK VINA RESULT:      -4.7     14.096     15.593
REMARK  1 active torsions:
REMARK  status: ('A' for Active; 'I' for Inactive)
REMARK    1  A    between atoms: C_3  and  C_4 
ROOT
HETATM    1 CL   LIG     1      25.964  21.050  22.083  1.00  0.00    -0.083 Cl
HETATM    2  C   LIG     1      26.472  22.550  21.311  1.00  0.00     0.048 A 
HETATM    3  C   LIG     1      25.981  22.934  20.047  1.00  0.00     0.019 A 
HETATM    4  C   LIG     1      26.398  24.159  19.481  1.00  0.00     0.070 A 
HETATM    5 CL   LIG     1      25.824  24.645  17.881  1.00  0.00    -0.081 Cl
HETATM    6  C   LIG     1      27.296  24.987  20.181  1.00  0.00     0.078 A 
HETATM    7 CL   LIG     1      27.825  26.518  19.481  1.00  0.00    -0.081 Cl
HETATM    8  C   LIG     1      27.776  24.591  21.441  1.00  0.00     0.059 A 
HETATM    9 CL   LIG     1      28.898  25.596  22.349  1.00  0.00    -0.082 Cl
HETATM   10  C   LIG     1      27.362  23.379  21.996  1.00  0.00     0.050 A 
ENDROOT
BRANCH   3  11
HETATM   11  C   LIG     1      25.036  22.057  19.322  1.00  0.00    -0.021 A 
HETATM   12  C   LIG     1      23.661  22.129  19.586  1.00  0.00     0.014 A 
HETATM   13  C   LIG     1      22.770  21.301  18.900  1.00  0.00     0.026 A 
HETATM   14  C   LIG     1      23.240  20.394  17.946  1.00  0.00     0.055 A 
HETATM   15  C   LIG     1      24.618  20.317  17.675  1.00  0.00     0.056 A 
HETATM   16 CL   LIG     1      22.089  19.367  17.103  1.00  0.00    -0.083 Cl
HETATM   17 CL   LIG     1      25.253  19.191  16.483  1.00  0.00    -0.083 Cl
HETATM   18  C   LIG     1      25.510  21.149  18.364  1.00  0.00     0.038 A 
ENDBRANCH   3  11
TORSDOF 1
ENDMDL
MODEL 4
REMARK VINA RESULT:      -4.7     14.027     14.917
REMARK  1 active torsions:
REMARK  status: ('A' for Active; 'I' for Inactive)
REMARK    1  A    between atoms: C_3  and  C_4 
ROOT
HETATM    1 CL   LIG     1      24.003  22.419  18.142  1.00  0.00    -0.083 Cl
HETATM    2  C   LIG     1      24.310  22.247  19.868  1.00  0.00     0.048 A 
HETATM    3  C   LIG     1      25.387  22.903  20.496  1.00  0.00     0.019 A 
HETATM    4  C   LIG     1      25.576  22.756  21.888  1.00  0.00     0.070 A 
HETATM    5 CL   LIG     1      26.941  23.539  22.693  1.00  0.00    -0.081 Cl
HETATM    6  C   LIG     1      24.689  21.959  22.637  1.00  0.00     0.078 A 
HETATM    7 CL   LIG     1      24.919  21.765  24.376  1.00  0.00    -0.081 Cl
HETATM    8  C   LIG     1      23.619  21.312  21.997  1.00  0.00     0.059 A 
HETATM    9 CL   LIG     1      22.488  20.308  22.895  1.00  0.00    -0.082 Cl
HETATM   10  C   LIG     1      23.437  21.459  20.621  1.00  0.00     0.050 A 
ENDROOT
BRANCH   3  11
HETATM   11  C   LIG     1      26.311  23.740  19.700  1.00  0.00    -0.021 A 
HETATM   12  C   LIG     1      26.131  25.129  19.639  1.00  0.00     0.014 A 
HETATM   13  C   LIG     1      27.005  25.918  18.887  1.00  0.00     0.026 A 
HETATM   14  C   LIG     1      28.064  25.330  18.189  1.00  0.00     0.055 A 
HETATM   15  C   LIG     1      28.251  23.937  18.246  1.00  0.00     0.056 A 
HETATM   16 CL   LIG     1      29.143  26.355  17.252  1.00  0.00    -0.083 Cl
HETATM   17 CL   LIG     1      29.569  23.156  17.384  1.00  0.00    -0.083 Cl
HETATM   18  C   LIG     1      27.374  23.148  19.001  1.00  0.00     0.038 A 
ENDBRANCH   3  11
TORSDOF 1
ENDMDL
MODEL 5
REMARK VINA RESULT:      -4.6     13.708     15.849
REMARK  1 active torsions:
REMARK  status: ('A' for Active; 'I' for Inactive)
REMARK    1  A    between atoms: C_3  and  C_4 
ROOT
HETATM    1 CL   LIG     1      28.355  21.596  16.566  1.00  0.00    -0.083 Cl
HETATM    2  C   LIG     1      28.410  23.295  17.026  1.00  0.00     0.048 A 
HETATM    3  C   LIG     1      27.613  23.805  18.070  1.00  0.00     0.019 A 
HETATM    4  C   LIG     1      27.713  25.170  18.420  1.00  0.00     0.070 A 
HETATM    5 CL   LIG     1      26.697  25.841  19.702  1.00  0.00    -0.081 Cl
HETATM    6  C   LIG     1      28.607  26.009  17.728  1.00  0.00     0.078 A 
HETATM    7 CL   LIG     1      28.736  27.717  18.155  1.00  0.00    -0.081 Cl
HETATM    8  C   LIG     1      29.396  25.486  16.690  1.00  0.00     0.059 A 
HETATM    9 CL   LIG     1      30.525  26.499  15.800  1.00  0.00    -0.082 Cl
HETATM   10  C   LIG     1      29.293  24.137  16.347  1.00  0.00     0.050 A 
ENDROOT
BRANCH   3  11
HETATM   11  C   LIG     1      26.679  22.914  18.793  1.00  0.00    -0.021 A 
HETATM   12  C   LIG     1      27.102  22.229  19.940  1.00  0.00     0.014 A 
HETATM   13  C   LIG     1      26.219  21.387  20.621  1.00  0.00     0.026 A 
HETATM   14  C   LIG     1      24.908  21.221  20.165  1.00  0.00     0.055 A 
HETATM   15  C   LIG     1      24.477  21.906  19.015  1.00  0.00     0.056 A 
HETATM   16 CL   LIG     1      23.825  20.154  21.048  1.00  0.00    -0.083 Cl
HETATM   17 CL   LIG     1      22.837  21.727  18.406  1.00  0.00    -0.083 Cl
HETATM   18  C   LIG     1      25.364  22.750  18.333  1.00  0.00     0.038 A 
ENDBRANCH   3  11
TORSDOF 1
ENDMDL
MODEL 6
REMARK VINA RESULT:      -4.6     14.423     16.306
REMARK  1 active torsions:
REMARK  status: ('A' for Active; 'I' for Inactive)
REMARK    1  A    between atoms: C_3  and  C_4 
ROOT
HETATM    1 CL   LIG     1      24.385  22.621  18.062  1.00  0.00    -0.083 Cl
HETATM    2  C   LIG     1      25.592  23.473  19.020  1.00  0.00     0.048 A 
HETATM    3  C   LIG     1      25.778  23.197  20.390  1.00  0.00     0.019 A 
HETATM    4  C   LIG     1      26.777  23.888  21.110  1.00  0.00     0.070 A 
HETATM    5 CL   LIG     1      27.005  23.585  22.837  1.00  0.00    -0.081 Cl
HETATM    6  C   LIG     1      27.580  24.844  20.458  1.00  0.00     0.078 A 
HETATM    7 CL   LIG     1      28.828  25.715  21.350  1.00  0.00    -0.081 Cl
HETATM    8  C   LIG     1      27.383  25.108  19.092  1.00  0.00     0.059 A 
HETATM    9 CL   LIG     1      28.364  26.293  18.239  1.00  0.00    -0.082 Cl
HETATM   10  C   LIG     1      26.393  24.423  18.384  1.00  0.00     0.050 A 
ENDROOT
BRANCH   3  11
HETATM   11  C   LIG     1      24.931  22.189  21.064  1.00  0.00    -0.021 A 
HETATM   12  C   LIG     1      23.707  22.564  21.637  1.00  0.00     0.014 A 
HETATM   13  C   LIG     1      22.908  21.611  22.273  1.00  0.00     0.026 A 
HETATM   14  C   LIG     1      23.322  20.277  22.345  1.00  0.00     0.055 A 
HETATM   15  C   LIG     1      24.548  19.894  21.772  1.00  0.00     0.056 A 
HETATM   16 CL   LIG     1      22.290  19.106  23.154  1.00  0.00    -0.083 Cl
HETATM   17 CL   LIG     1      25.107  18.228  21.839  1.00  0.00    -0.083 Cl
HETATM   18  C   LIG     1      25.348  20.851  21.134  1.00  0.00     0.038 A 
ENDBRANCH   3  11
TORSDOF 1
ENDMDL
MODEL 7
REMARK VINA RESULT:      -4.6     14.313     15.703
REMARK  1 active torsions:
REMARK  status: ('A' for Active; 'I' for Inactive)
REMARK    1  A    between atoms: C_3  and  C_4 
ROOT
HETATM    1 CL   LIG     1      25.901  24.914  18.105  1.00  0.00    -0.083 Cl
HETATM    2  C   LIG     1      26.464  24.383  19.687  1.00  0.00     0.048 A 
HETATM    3  C   LIG     1      26.070  23.145  20.235  1.00  0.00     0.019 A 
HETATM    4  C   LIG     1      26.570  22.752  21.495  1.00  0.00     0.070 A 
HETATM    5 CL   LIG     1      26.062  21.221  22.220  1.00  0.00    -0.081 Cl
HETATM    6  C   LIG     1      27.457  23.593  22.194  1.00  0.00     0.078 A 
HETATM    7 CL   LIG     1      28.084  23.112  23.772  1.00  0.00    -0.081 Cl
HETATM    8  C   LIG     1      27.842  24.823  21.635  1.00  0.00     0.059 A 
HETATM    9 CL   LIG     1      28.948  25.903  22.473  1.00  0.00    -0.082 Cl
HETATM   10  C   LIG     1      27.344  25.209  20.388  1.00  0.00     0.050 A 
ENDROOT
BRANCH   3  11
HETATM   11  C   LIG     1      25.140  22.268  19.491  1.00  0.00    -0.021 A 
HETATM   12  C   LIG     1      23.773  22.263  19.802  1.00  0.00     0.014 A 
HETATM   13  C   LIG     1      22.896  21.434  19.098  1.00  0.00     0.026 A 
HETATM   14  C   LIG     1      23.374  20.603  18.080  1.00  0.00     0.055 A 
HETATM   15  C   LIG     1      24.744  20.603  17.763  1.00  0.00     0.056 A 
HETATM   16 CL   LIG     1      22.240  19.573  17.217  1.00  0.00    -0.083 Cl
HETATM   17 CL   LIG     1      25.387  19.575  16.490  1.00  0.00    -0.083 Cl
HETATM   18  C   LIG     1      25.621  21.436  18.469  1.00  0.00     0.038 A 
ENDBRANCH   3  11
TORSDOF 1
ENDMDL
MODEL 8
REMARK VINA RESULT:      -4.5     15.648     16.953
REMARK  1 active torsions:
REMARK  status: ('A' for Active; 'I' for Inactive)
REMARK    1  A    between atoms: C_3  and  C_4 
ROOT
HETATM    1 CL   LIG     1      22.357  23.480  21.652  1.00  0.00    -0.083 Cl
HETATM    2  C   LIG     1      23.056  21.990  21.026  1.00  0.00     0.048 A 
HETATM    3  C   LIG     1      23.842  21.144  21.835  1.00  0.00     0.019 A 
HETATM    4  C   LIG     1      24.358  19.946  21.295  1.00  0.00     0.070 A 
HETATM    5 CL   LIG     1      25.376  18.887  22.279  1.00  0.00    -0.081 Cl
HETATM    6  C   LIG     1      24.085  19.603  19.956  1.00  0.00     0.078 A 
HETATM    7 CL   LIG     1      24.729  18.110  19.271  1.00  0.00    -0.081 Cl
HETATM    8  C   LIG     1      23.300  20.456  19.162  1.00  0.00     0.059 A 
HETATM    9 CL   LIG     1      22.934  20.065  17.487  1.00  0.00    -0.082 Cl
HETATM   10  C   LIG     1      22.792  21.640  19.700  1.00  0.00     0.050 A 
ENDROOT
BRANCH   3  11
HETATM   11  C   LIG     1      24.120  21.513  23.240  1.00  0.00    -0.021 A 
HETATM   12  C   LIG     1      23.434  20.879  24.286  1.00  0.00     0.014 A 
HETATM   13  C   LIG     1      23.698  21.228  25.612  1.00  0.00     0.026 A 
HETATM   14  C   LIG     1      24.648  22.212  25.908  1.00  0.00     0.055 A 
HETATM   15  C   LIG     1      25.340  22.850  24.864  1.00  0.00     0.056 A 
HETATM   16 CL   LIG     1      24.953  22.625  27.590  1.00  0.00    -0.083 Cl
HETATM   17 CL   LIG     1      26.542  24.091  25.191  1.00  0.00    -0.083 Cl
HETATM   18  C   LIG     1      25.074  22.499  23.535  1.00  0.00     0.038 A 
ENDBRANCH   3  11
TORSDOF 1
ENDMDL
MODEL 9
REMARK VINA RESULT:      -4.5     16.009     17.049
REMARK  1 active torsions:
REMARK  status: ('A' for Active; 'I' for Inactive)
REMARK    1  A    between atoms: C_3  and  C_4 
ROOT
HETATM    1 CL   LIG     1      21.945  18.805  23.510  1.00  0.00    -0.083 Cl
HETATM    2  C   LIG     1      22.880  19.877  24.548  1.00  0.00     0.048 A 
HETATM    3  C   LIG     1      23.594  20.974  24.026  1.00  0.00     0.019 A 
HETATM    4  C   LIG     1      24.307  21.821  24.902  1.00  0.00     0.070 A 
HETATM    5 CL   LIG     1      25.240  23.182  24.268  1.00  0.00    -0.081 Cl
HETATM    6  C   LIG     1      24.299  21.566  26.287  1.00  0.00     0.078 A 
HETATM    7 CL   LIG     1      25.191  22.617  27.390  1.00  0.00    -0.081 Cl
HETATM    8  C   LIG     1      23.582  20.469  26.793  1.00  0.00     0.059 A 
HETATM    9 CL   LIG     1      23.545  20.116  28.516  1.00  0.00    -0.082 Cl
HETATM   10  C   LIG     1      22.879  19.634  25.923  1.00  0.00     0.050 A 
ENDROOT
BRANCH   3  11
HETATM   11  C   LIG     1      23.593  21.234  22.570  1.00  0.00    -0.021 A 
HETATM   12  C   LIG     1      22.632  22.084  22.004  1.00  0.00     0.014 A 
HETATM   13  C   LIG     1      22.633  22.328  20.629  1.00  0.00     0.026 A 
HETATM   14  C   LIG     1      23.590  21.727  19.805  1.00  0.00     0.055 A 
HETATM   15  C   LIG     1      24.557  20.873  20.366  1.00  0.00     0.056 A 
HETATM   16 CL   LIG     1      23.559  22.058  18.079  1.00  0.00    -0.083 Cl
HETATM   17 CL   LIG     1      25.779  20.097  19.368  1.00  0.00    -0.083 Cl
HETATM   18  C   LIG     1      24.555  20.630  21.746  1.00  0.00     0.038 A 
ENDBRANCH   3  11
TORSDOF 1
ENDMDL
MODEL 10
REMARK VINA RESULT:      -4.5     13.794     14.639
REMARK  1 active torsions:
REMARK  status: ('A' for Active; 'I' for Inactive)
REMARK    1  A    between atoms: C_3  and  C_4 
ROOT
HETATM    1 CL   LIG     1      27.417  23.928  22.708  1.00  0.00    -0.083 Cl
HETATM    2  C   LIG     1      26.139  23.202  21.739  1.00  0.00     0.048 A 
HETATM    3  C   LIG     1      26.039  23.436  20.352  1.00  0.00     0.019 A 
HETATM    4  C   LIG     1      25.012  22.810  19.613  1.00  0.00     0.070 A 
HETATM    5 CL   LIG     1      24.844  23.116  17.880  1.00  0.00    -0.081 Cl
HETATM    6  C   LIG     1      24.099  21.956  20.262  1.00  0.00     0.078 A 
HETATM    7 CL   LIG     1      22.810  21.172  19.346  1.00  0.00    -0.081 Cl
HETATM    8  C   LIG     1      24.212  21.732  21.644  1.00  0.00     0.059 A 
HETATM    9 CL   LIG     1      23.093  20.674  22.493  1.00  0.00    -0.082 Cl
HETATM   10  C   LIG     1      25.228  22.354  22.371  1.00  0.00     0.050 A 
ENDROOT
BRANCH   3  11
HETATM   11  C   LIG     1      27.006  24.332  19.681  1.00  0.00    -0.021 A 
HETATM   12  C   LIG     1      26.771  25.713  19.630  1.00  0.00     0.014 A 
HETATM   13  C   LIG     1      27.685  26.558  18.995  1.00  0.00     0.026 A 
HETATM   14  C   LIG     1      28.840  26.034  18.406  1.00  0.00     0.055 A 
HETATM   15  C   LIG     1      29.081  24.649  18.453  1.00  0.00     0.056 A 
HETATM   16 CL   LIG     1      29.966  27.128  17.616  1.00  0.00    -0.083 Cl
HETATM   17 CL   LIG     1      30.520  23.948  17.725  1.00  0.00    -0.083 Cl
HETATM   18  C   LIG     1      28.164  23.804  19.090  1.00  0.00     0.038 A 
ENDBRANCH   3  11
TORSDOF 1
ENDMDL
MODEL 11
REMARK VINA RESULT:      -4.4     16.323     17.541
REMARK  1 active torsions:
REMARK  status: ('A' for Active; 'I' for Inactive)
REMARK    1  A    between atoms: C_3  and  C_4 
ROOT
HETATM    1 CL   LIG     1      23.315  21.245  26.380  1.00  0.00    -0.083 Cl
HETATM    2  C   LIG     1      24.710  22.314  26.261  1.00  0.00     0.048 A 
HETATM    3  C   LIG     1      25.316  22.604  25.022  1.00  0.00     0.019 A 
HETATM    4  C   LIG     1      26.416  23.488  24.975  1.00  0.00     0.070 A 
HETATM    5 CL   LIG     1      27.215  23.839  23.438  1.00  0.00    -0.081 Cl
HETATM    6  C   LIG     1      26.898  24.074  26.162  1.00  0.00     0.078 A 
HETATM    7 CL   LIG     1      28.275  25.177  26.114  1.00  0.00    -0.081 Cl
HETATM    8  C   LIG     1      26.283  23.776  27.389  1.00  0.00     0.059 A 
HETATM    9 CL   LIG     1      26.854  24.485  28.894  1.00  0.00    -0.082 Cl
HETATM   10  C   LIG     1      25.197  22.900  27.431  1.00  0.00     0.050 A 
ENDROOT
BRANCH   3  11
HETATM   11  C   LIG     1      24.799  21.985  23.782  1.00  0.00    -0.021 A 
HETATM   12  C   LIG     1      25.327  20.770  23.326  1.00  0.00     0.014 A 
HETATM   13  C   LIG     1      24.838  20.187  22.155  1.00  0.00     0.026 A 
HETATM   14  C   LIG     1      23.819  20.810  21.427  1.00  0.00     0.055 A 
HETATM   15  C   LIG     1      23.284  22.030  21.879  1.00  0.00     0.056 A 
HETATM   16 CL   LIG     1      23.229  20.047  19.958  1.00  0.00    -0.083 Cl
HETATM   17 CL   LIG     1      22.003  22.848  20.997  1.00  0.00    -0.083 Cl
HETATM   18  C   LIG     1      23.776  22.612  23.055  1.00  0.00     0.038 A 
ENDBRANCH   3  11
TORSDOF 1
ENDMDL
MODEL 12
REMARK VINA RESULT:      -4.4      4.980      8.232
REMARK  1 active torsions:
REMARK  status: ('A' for Active; 'I' for Inactive)
REMARK    1  A    between atoms: C_3  and  C_4 
ROOT
HETATM    1 CL   LIG     1      14.360  35.340  22.228  1.00  0.00    -0.083 Cl
HETATM    2  C   LIG     1      15.798  36.195  21.678  1.00  0.00     0.048 A 
HETATM    3  C   LIG     1      16.431  35.872  20.461  1.00  0.00     0.019 A 
HETATM    4  C   LIG     1      17.566  36.605  20.050  1.00  0.00     0.070 A 
HETATM    5 CL   LIG     1      18.399  36.193  18.546  1.00  0.00    -0.081 Cl
HETATM    6  C   LIG     1      18.056  37.652  20.855  1.00  0.00     0.078 A 
HETATM    7 CL   LIG     1      19.476  38.571  20.351  1.00  0.00    -0.081 Cl
HETATM    8  C   LIG     1      17.414  37.963  22.064  1.00  0.00     0.059 A 
HETATM    9 CL   LIG     1      17.992  39.264  23.098  1.00  0.00    -0.082 Cl
HETATM   10  C   LIG     1      16.292  37.235  22.467  1.00  0.00     0.050 A 
ENDROOT
BRANCH   3  11
HETATM   11  C   LIG     1      15.907  34.772  19.623  1.00  0.00    -0.021 A 
HETATM   12  C   LIG     1      15.613  34.993  18.270  1.00  0.00     0.014 A 
HETATM   13  C   LIG     1      15.118  33.953  17.480  1.00  0.00     0.026 A 
HETATM   14  C   LIG     1      14.911  32.684  18.031  1.00  0.00     0.055 A 
HETATM   15  C   LIG     1      15.203  32.455  19.387  1.00  0.00     0.056 A 
HETATM   16 CL   LIG     1      14.286  31.400  17.005  1.00  0.00    -0.083 Cl
HETATM   17 CL   LIG     1      14.958  30.876  20.120  1.00  0.00    -0.083 Cl
HETATM   18  C   LIG     1      15.700  33.500  20.177  1.00  0.00     0.038 A 
ENDBRANCH   3  11
TORSDOF 1
ENDMDL
MODEL 13
REMARK VINA RESULT:      -4.4     16.222     17.507
REMARK  1 active torsions:
REMARK  status: ('A' for Active; 'I' for Inactive)
REMARK    1  A    between atoms: C_3  and  C_4 
ROOT
HETATM    1 CL   LIG     1      27.771  23.783  22.154  1.00  0.00    -0.083 Cl
HETATM    2  C   LIG     1      27.316  23.925  23.850  1.00  0.00     0.048 A 
HETATM    3  C   LIG     1      26.221  23.216  24.383  1.00  0.00     0.019 A 
HETATM    4  C   LIG     1      25.912  23.342  25.755  1.00  0.00     0.070 A 
HETATM    5 CL   LIG     1      24.522  22.491  26.440  1.00  0.00    -0.081 Cl
HETATM    6  C   LIG     1      26.697  24.171  26.580  1.00  0.00     0.078 A 
HETATM    7 CL   LIG     1      26.316  24.338  28.295  1.00  0.00    -0.081 Cl
HETATM    8  C   LIG     1      27.786  24.871  26.034  1.00  0.00     0.059 A 
HETATM    9 CL   LIG     1      28.792  25.916  27.028  1.00  0.00    -0.082 Cl
HETATM   10  C   LIG     1      28.087  24.744  24.676  1.00  0.00     0.050 A 
ENDROOT
BRANCH   3  11
HETATM   11  C   LIG     1      25.405  22.346  23.509  1.00  0.00    -0.021 A 
HETATM   12  C   LIG     1      25.752  20.999  23.330  1.00  0.00     0.014 A 
HETATM   13  C   LIG     1      24.980  20.179  22.504  1.00  0.00     0.026 A 
HETATM   14  C   LIG     1      23.856  20.693  21.849  1.00  0.00     0.055 A 
HETATM   15  C   LIG     1      23.502  22.043  22.025  1.00  0.00     0.056 A 
HETATM   16 CL   LIG     1      22.909  19.631  20.817  1.00  0.00    -0.083 Cl
HETATM   17 CL   LIG     1      22.097  22.730  21.222  1.00  0.00    -0.083 Cl
HETATM   18  C   LIG     1      24.277  22.863  22.854  1.00  0.00     0.038 A 
ENDBRANCH   3  11
TORSDOF 1
ENDMDL
MODEL 14
REMARK VINA RESULT:      -4.4     15.684     17.099
REMARK  1 active torsions:
REMARK  status: ('A' for Active; 'I' for Inactive)
REMARK    1  A    between atoms: C_3  and  C_4 
ROOT
HETATM    1 CL   LIG     1      27.175  19.993  22.355  1.00  0.00    -0.083 Cl
HETATM    2  C   LIG     1      25.925  20.564  21.254  1.00  0.00     0.048 A 
HETATM    3  C   LIG     1      24.801  21.278  21.717  1.00  0.00     0.019 A 
HETATM    4  C   LIG     1      23.839  21.738  20.792  1.00  0.00     0.070 A 
HETATM    5 CL   LIG     1      22.403  22.604  21.352  1.00  0.00    -0.081 Cl
HETATM    6  C   LIG     1      24.008  21.485  19.417  1.00  0.00     0.078 A 
HETATM    7 CL   LIG     1      22.810  22.053  18.253  1.00  0.00    -0.081 Cl
HETATM    8  C   LIG     1      25.134  20.773  18.970  1.00  0.00     0.059 A 
HETATM    9 CL   LIG     1      25.385  20.436  17.262  1.00  0.00    -0.082 Cl
HETATM   10  C   LIG     1      26.082  20.318  19.889  1.00  0.00     0.050 A 
ENDROOT
BRANCH   3  11
HETATM   11  C   LIG     1      24.635  21.540  23.163  1.00  0.00    -0.021 A 
HETATM   12  C   LIG     1      23.856  20.682  23.952  1.00  0.00     0.014 A 
HETATM   13  C   LIG     1      23.700  20.931  25.317  1.00  0.00     0.026 A 
HETATM   14  C   LIG     1      24.318  22.038  25.908  1.00  0.00     0.055 A 
HETATM   15  C   LIG     1      25.100  22.903  25.123  1.00  0.00     0.056 A 
HETATM   16 CL   LIG     1      24.098  22.320  27.630  1.00  0.00    -0.083 Cl
HETATM   17 CL   LIG     1      25.895  24.306  25.824  1.00  0.00    -0.083 Cl
HETATM   18  C   LIG     1      25.256  22.651  23.754  1.00  0.00     0.038 A 
ENDBRANCH   3  11
TORSDOF 1
ENDMDL
MODEL 15
REMARK VINA RESULT:      -4.4     13.797     15.856
REMARK  1 active torsions:
REMARK  status: ('A' for Active; 'I' for Inactive)
REMARK    1  A    between atoms: C_3  and  C_4 
ROOT
HETATM    1 CL   LIG     1      27.335  20.604  17.686  1.00  0.00    -0.083 Cl
HETATM    2  C   LIG     1      27.770  22.304  17.537  1.00  0.00     0.048 A 
HETATM    3  C   LIG     1      27.098  23.305  18.267  1.00  0.00     0.019 A 
HETATM    4  C   LIG     1      27.501  24.652  18.135  1.00  0.00     0.070 A 
HETATM    5 CL   LIG     1      26.650  25.930  19.012  1.00  0.00    -0.081 Cl
HETATM    6  C   LIG     1      28.568  24.985  17.279  1.00  0.00     0.078 A 
HETATM    7 CL   LIG     1      29.076  26.666  17.104  1.00  0.00    -0.081 Cl
HETATM    8  C   LIG     1      29.229  23.976  16.559  1.00  0.00     0.059 A 
HETATM    9 CL   LIG     1      30.567  24.349  15.480  1.00  0.00    -0.082 Cl
HETATM   10  C   LIG     1      28.826  22.646  16.692  1.00  0.00     0.050 A 
ENDROOT
BRANCH   3  11
HETATM   11  C   LIG     1      25.980  22.943  19.166  1.00  0.00    -0.021 A 
HETATM   12  C   LIG     1      24.746  22.544  18.632  1.00  0.00     0.014 A 
HETATM   13  C   LIG     1      23.691  22.202  19.481  1.00  0.00     0.026 A 
HETATM   14  C   LIG     1      23.856  22.256  20.869  1.00  0.00     0.055 A 
HETATM   15  C   LIG     1      25.091  22.655  21.411  1.00  0.00     0.056 A 
HETATM   16 CL   LIG     1      22.506  21.819  21.907  1.00  0.00    -0.083 Cl
HETATM   17 CL   LIG     1      25.342  22.737  23.149  1.00  0.00    -0.083 Cl
HETATM   18  C   LIG     1      26.147  22.997  20.557  1.00  0.00     0.038 A 
ENDBRANCH   3  11
TORSDOF 1
ENDMDL
MODEL 16
REMARK VINA RESULT:      -4.3     15.880     16.949
REMARK  1 active torsions:
REMARK  status: ('A' for Active; 'I' for Inactive)
REMARK    1  A    between atoms: C_3  and  C_4 
ROOT
HETATM    1 CL   LIG     1      22.830  20.508  24.822  1.00  0.00    -0.083 Cl
HETATM    2  C   LIG     1      24.196  21.611  24.953  1.00  0.00     0.048 A 
HETATM    3  C   LIG     1      24.821  22.153  23.812  1.00  0.00     0.019 A 
HETATM    4  C   LIG     1      25.897  23.054  23.969  1.00  0.00     0.070 A 
HETATM    5 CL   LIG     1      26.720  23.719  22.553  1.00  0.00    -0.081 Cl
HETATM    6  C   LIG     1      26.336  23.407  25.260  1.00  0.00     0.078 A 
HETATM    7 CL   LIG     1      27.682  24.529  25.466  1.00  0.00    -0.081 Cl
HETATM    8  C   LIG     1      25.702  22.859  26.388  1.00  0.00     0.059 A 
HETATM    9 CL   LIG     1      26.218  23.273  28.017  1.00  0.00    -0.082 Cl
HETATM   10  C   LIG     1      24.640  21.967  26.228  1.00  0.00     0.050 A 
ENDROOT
BRANCH   3  11
HETATM   11  C   LIG     1      24.350  21.778  22.461  1.00  0.00    -0.021 A 
HETATM   12  C   LIG     1      23.327  22.508  21.842  1.00  0.00     0.014 A 
HETATM   13  C   LIG     1      22.883  22.153  20.566  1.00  0.00     0.026 A 
HETATM   14  C   LIG     1      23.455  21.066  19.896  1.00  0.00     0.055 A 
HETATM   15  C   LIG     1      24.483  20.330  20.511  1.00  0.00     0.056 A 
HETATM   16 CL   LIG     1      22.871  20.649  18.291  1.00  0.00    -0.083 Cl
HETATM   17 CL   LIG     1      25.231  18.957  19.706  1.00  0.00    -0.083 Cl
HETATM   18  C   LIG     1      24.927  20.688  21.791  1.00  0.00     0.038 A 
ENDBRANCH   3  11
TORSDOF 1
ENDMDL
MODEL 17
REMARK VINA RESULT:      -4.3     14.159     15.059
REMARK  1 active torsions:
REMARK  status: ('A' for Active; 'I' for Inactive)
REMARK    1  A    between atoms: C_3  and  C_4 
ROOT
HETATM    1 CL   LIG     1      23.278  23.024  21.318  1.00  0.00    -0.083 Cl
HETATM    2  C   LIG     1      23.719  21.652  20.305  1.00  0.00     0.048 A 
HETATM    3  C   LIG     1      24.841  21.693  19.453  1.00  0.00     0.019 A 
HETATM    4  C   LIG     1      25.169  20.557  18.680  1.00  0.00     0.070 A 
HETATM    5 CL   LIG     1      26.549  20.596  17.576  1.00  0.00    -0.081 Cl
HETATM    6  C   LIG     1      24.379  19.395  18.768  1.00  0.00     0.078 A 
HETATM    7 CL   LIG     1      24.779  17.972  17.803  1.00  0.00    -0.081 Cl
HETATM    8  C   LIG     1      23.265  19.369  19.623  1.00  0.00     0.059 A 
HETATM    9 CL   LIG     1      22.252  17.938  19.763  1.00  0.00    -0.082 Cl
HETATM   10  C   LIG     1      22.943  20.494  20.384  1.00  0.00     0.050 A 
ENDROOT
BRANCH   3  11
HETATM   11  C   LIG     1      25.665  22.918  19.371  1.00  0.00    -0.021 A 
HETATM   12  C   LIG     1      25.494  23.815  18.307  1.00  0.00     0.014 A 
HETATM   13  C   LIG     1      26.273  24.971  18.231  1.00  0.00     0.026 A 
HETATM   14  C   LIG     1      27.230  25.244  19.214  1.00  0.00     0.055 A 
HETATM   15  C   LIG     1      27.407  24.349  20.284  1.00  0.00     0.056 A 
HETATM   16 CL   LIG     1      28.193  26.709  19.085  1.00  0.00    -0.083 Cl
HETATM   17 CL   LIG     1      28.598  24.652  21.542  1.00  0.00    -0.083 Cl
HETATM   18  C   LIG     1      26.624  23.190  20.358  1.00  0.00     0.038 A 
ENDBRANCH   3  11
TORSDOF 1
ENDMDL
MODEL 18
REMARK VINA RESULT:      -4.2     14.281     15.070
REMARK  1 active torsions:
REMARK  status: ('A' for Active; 'I' for Inactive)
REMARK    1  A    between atoms: C_3  and  C_4 
ROOT
HETATM    1 CL   LIG     1      28.432  23.929  22.762  1.00  0.00    -0.083 Cl
HETATM    2  C   LIG     1      26.811  23.264  22.592  1.00  0.00     0.048 A 
HETATM    3  C   LIG     1      26.169  23.190  21.339  1.00  0.00     0.019 A 
HETATM    4  C   LIG     1      24.879  22.624  21.250  1.00  0.00     0.070 A 
HETATM    5 CL   LIG     1      24.039  22.554  19.696  1.00  0.00    -0.081 Cl
HETATM    6  C   LIG     1      24.244  22.136  22.408  1.00  0.00     0.078 A 
HETATM    7 CL   LIG     1      22.629  21.430  22.308  1.00  0.00    -0.081 Cl
HETATM    8  C   LIG     1      24.896  22.216  23.650  1.00  0.00     0.059 A 
HETATM    9 CL   LIG     1      24.139  21.618  25.121  1.00  0.00    -0.082 Cl
HETATM   10  C   LIG     1      26.171  22.778  23.734  1.00  0.00     0.050 A 
ENDROOT
BRANCH   3  11
HETATM   11  C   LIG     1      26.847  23.703  20.128  1.00  0.00    -0.021 A 
HETATM   12  C   LIG     1      27.310  22.814  19.149  1.00  0.00     0.014 A 
HETATM   13  C   LIG     1      27.950  23.300  18.006  1.00  0.00     0.026 A 
HETATM   14  C   LIG     1      28.134  24.676  17.830  1.00  0.00     0.055 A 
HETATM   15  C   LIG     1      27.670  25.573  18.809  1.00  0.00     0.056 A 
HETATM   16 CL   LIG     1      28.943  25.250  16.379  1.00  0.00    -0.083 Cl
HETATM   17 CL   LIG     1      27.880  27.309  18.628  1.00  0.00    -0.083 Cl
HETATM   18  C   LIG     1      27.029  25.083  19.954  1.00  0.00     0.038 A 
ENDBRANCH   3  11
TORSDOF 1
ENDMDL
MODEL 19
REMARK VINA RESULT:      -4.2     16.033     17.242
REMARK  1 active torsions:
REMARK  status: ('A' for Active; 'I' for Inactive)
REMARK    1  A    between atoms: C_3  and  C_4 
ROOT
HETATM    1 CL   LIG     1      23.271  20.896  24.200  1.00  0.00    -0.083 Cl
HETATM    2  C   LIG     1      23.927  21.650  22.750  1.00  0.00     0.048 A 
HETATM    3  C   LIG     1      25.179  22.297  22.754  1.00  0.00     0.019 A 
HETATM    4  C   LIG     1      25.674  22.863  21.559  1.00  0.00     0.070 A 
HETATM    5 CL   LIG     1      27.224  23.712  21.548  1.00  0.00    -0.081 Cl
HETATM    6  C   LIG     1      24.917  22.777  20.374  1.00  0.00     0.078 A 
HETATM    7 CL   LIG     1      25.526  23.485  18.877  1.00  0.00    -0.081 Cl
HETATM    8  C   LIG     1      23.672  22.128  20.385  1.00  0.00     0.059 A 
HETATM    9 CL   LIG     1      22.696  21.997  18.928  1.00  0.00    -0.082 Cl
HETATM   10  C   LIG     1      23.186  21.570  21.569  1.00  0.00     0.050 A 
ENDROOT
BRANCH   3  11
HETATM   11  C   LIG     1      25.966  22.380  24.004  1.00  0.00    -0.021 A 
HETATM   12  C   LIG     1      26.892  21.377  24.323  1.00  0.00     0.014 A 
HETATM   13  C   LIG     1      27.634  21.457  25.503  1.00  0.00     0.026 A 
HETATM   14  C   LIG     1      27.460  22.536  26.376  1.00  0.00     0.055 A 
HETATM   15  C   LIG     1      26.533  23.546  26.062  1.00  0.00     0.056 A 
HETATM   16 CL   LIG     1      28.412  22.602  27.852  1.00  0.00    -0.083 Cl
HETATM   17 CL   LIG     1      26.283  24.920  27.129  1.00  0.00    -0.083 Cl
HETATM   18  C   LIG     1      25.790  23.464  24.877  1.00  0.00     0.038 A 
ENDBRANCH   3  11
TORSDOF 1
ENDMDL
MODEL 20
REMARK VINA RESULT:      -4.2     16.047     17.436
REMARK  1 active torsions:
REMARK  status: ('A' for Active; 'I' for Inactive)
REMARK    1  A    between atoms: C_3  and  C_4 
ROOT
HETATM    1 CL   LIG     1      27.878  23.712  23.086  1.00  0.00    -0.083 Cl
HETATM    2  C   LIG     1      26.487  23.212  22.130  1.00  0.00     0.048 A 
HETATM    3  C   LIG     1      25.386  22.553  22.714  1.00  0.00     0.019 A 
HETATM    4  C   LIG     1      24.282  22.197  21.909  1.00  0.00     0.070 A 
HETATM    5 CL   LIG     1      22.905  21.337  22.611  1.00  0.00    -0.081 Cl
HETATM    6  C   LIG     1      24.285  22.502  20.534  1.00  0.00     0.078 A 
HETATM    7 CL   LIG     1      22.911  22.057  19.520  1.00  0.00    -0.081 Cl
HETATM    8  C   LIG     1      25.389  23.161  19.967  1.00  0.00     0.059 A 
HETATM    9 CL   LIG     1      25.434  23.562  18.255  1.00  0.00    -0.082 Cl
HETATM   10  C   LIG     1      26.479  23.510  20.766  1.00  0.00     0.050 A 
ENDROOT
BRANCH   3  11
HETATM   11  C   LIG     1      25.392  22.240  24.159  1.00  0.00    -0.021 A 
HETATM   12  C   LIG     1      24.914  23.176  25.087  1.00  0.00     0.014 A 
HETATM   13  C   LIG     1      24.920  22.878  26.451  1.00  0.00     0.026 A 
HETATM   14  C   LIG     1      25.402  21.645  26.903  1.00  0.00     0.055 A 
HETATM   15  C   LIG     1      25.882  20.701  25.978  1.00  0.00     0.056 A 
HETATM   16 CL   LIG     1      25.394  21.306  28.628  1.00  0.00    -0.083 Cl
HETATM   17 CL   LIG     1      26.497  19.140  26.502  1.00  0.00    -0.083 Cl
HETATM   18  C   LIG     1      25.875  21.002  24.610  1.00  0.00     0.038 A 
ENDBRANCH   3  11
TORSDOF 1
ENDMDL
