REMARK  1 active torsions:
REMARK  status: ('A' for Active; 'I' for Inactive)
REMARK    1  A    between atoms: C_3  and  C_4 
ROOT
HETATM    1 CL   LIG     1       0.834  -1.926  -1.958  1.00  0.00    -0.083 Cl
HETATM    2  C   LIG     1       1.555  -0.797  -0.815  1.00  0.00     0.048 A 
HETATM    3  C   LIG     1       0.763   0.025   0.012  1.00  0.00     0.019 A 
HETATM    4  C   LIG     1       1.388   0.895   0.932  1.00  0.00     0.070 A 
HETATM    5 CL   LIG     1       0.417   1.962   1.954  1.00  0.00    -0.081 Cl
HETATM    6  C   LIG     1       2.793   0.935   1.019  1.00  0.00     0.078 A 
HETATM    7 CL   LIG     1       3.583   2.022   2.163  1.00  0.00    -0.081 Cl
HETATM    8  C   LIG     1       3.569   0.109   0.189  1.00  0.00     0.059 A 
HETATM    9 CL   LIG     1       5.326   0.127   0.266  1.00  0.00    -0.082 Cl
HETATM   10  C   LIG     1       2.947  -0.749  -0.720  1.00  0.00     0.050 A 
ENDROOT
BRANCH   3  11
HETATM   11  C   LIG     1      -0.712  -0.027  -0.086  1.00  0.00    -0.021 A 
HETATM   12  C   LIG     1      -1.363   0.485  -1.217  1.00  0.00     0.014 A 
HETATM   13  C   LIG     1      -2.756   0.435  -1.308  1.00  0.00     0.026 A 
HETATM   14  C   LIG     1      -3.512  -0.125  -0.273  1.00  0.00     0.055 A 
HETATM   15  C   LIG     1      -2.865  -0.641   0.864  1.00  0.00     0.056 A 
HETATM   16 CL   LIG     1      -5.263  -0.170  -0.423  1.00  0.00    -0.083 Cl
HETATM   17 CL   LIG     1      -3.776  -1.354   2.188  1.00  0.00    -0.083 Cl
HETATM   18  C   LIG     1      -1.468  -0.590   0.953  1.00  0.00     0.038 A 
ENDBRANCH   3  11
TORSDOF 1
