MODEL 1
REMARK VINA RESULT:      -2.8      0.000      0.000
REMARK  0 active torsions:
REMARK  status: ('A' for Active; 'I' for Inactive)
ROOT
HETATM    1  C   LIG     1      17.958  34.961  26.154  1.00  0.00     0.016 C 
HETATM    2  C   LIG     1      18.279  36.411  26.483  1.00  0.00     0.075 C 
HETATM    3  I   LIG     1      17.472  37.708  24.988  1.00  0.00    -0.090 I 
ENDROOT
TORSDOF 0
ENDMDL
MODEL 2
REMARK VINA RESULT:      -2.7      2.418      2.756
REMARK  0 active torsions:
REMARK  status: ('A' for Active; 'I' for Inactive)
ROOT
HETATM    1  C   LIG     1      17.350  38.109  25.331  1.00  0.00     0.016 C 
HETATM    2  C   LIG     1      17.224  36.723  24.717  1.00  0.00     0.075 C 
HETATM    3  I   LIG     1      17.934  35.240  26.081  1.00  0.00    -0.090 I 
ENDROOT
TORSDOF 0
ENDMDL
MODEL 3
REMARK VINA RESULT:      -2.5      1.543      1.850
REMARK  0 active torsions:
REMARK  status: ('A' for Active; 'I' for Inactive)
ROOT
HETATM    1  C   LIG     1      18.357  36.807  25.899  1.00  0.00     0.016 C 
HETATM    2  C   LIG     1      17.333  37.869  25.530  1.00  0.00     0.075 C 
HETATM    3  I   LIG     1      17.094  37.964  23.408  1.00  0.00    -0.090 I 
ENDROOT
TORSDOF 0
ENDMDL
MODEL 4
REMARK VINA RESULT:      -2.3      5.596      5.729
REMARK  0 active torsions:
REMARK  status: ('A' for Active; 'I' for Inactive)
ROOT
HETATM    1  C   LIG     1      17.518  38.388  21.863  1.00  0.00     0.016 C 
HETATM    2  C   LIG     1      18.626  39.345  21.449  1.00  0.00     0.075 C 
HETATM    3  I   LIG     1      19.513  38.703  19.614  1.00  0.00    -0.090 I 
ENDROOT
TORSDOF 0
ENDMDL
MODEL 5
REMARK VINA RESULT:      -2.3      2.657      2.798
REMARK  0 active torsions:
REMARK  status: ('A' for Active; 'I' for Inactive)
ROOT
HETATM    1  C   LIG     1      17.112  37.373  23.396  1.00  0.00     0.016 C 
HETATM    2  C   LIG     1      17.880  37.942  24.579  1.00  0.00     0.075 C 
HETATM    3  I   LIG     1      18.135  36.449  26.087  1.00  0.00    -0.090 I 
ENDROOT
TORSDOF 0
ENDMDL
MODEL 6
REMARK VINA RESULT:      -2.3      6.097      6.097
REMARK  0 active torsions:
REMARK  status: ('A' for Active; 'I' for Inactive)
ROOT
HETATM    1  C   LIG     1      19.086  37.459  19.434  1.00  0.00     0.016 C 
HETATM    2  C   LIG     1      19.243  38.815  20.104  1.00  0.00     0.075 C 
HETATM    3  I   LIG     1      18.060  38.906  21.881  1.00  0.00    -0.090 I 
ENDROOT
TORSDOF 0
ENDMDL
MODEL 7
REMARK VINA RESULT:      -2.2      5.369      5.594
REMARK  0 active torsions:
REMARK  status: ('A' for Active; 'I' for Inactive)
ROOT
HETATM    1  C   LIG     1      19.083  39.365  20.425  1.00  0.00     0.016 C 
HETATM    2  C   LIG     1      18.338  38.131  20.911  1.00  0.00     0.075 C 
HETATM    3  I   LIG     1      17.173  38.600  22.640  1.00  0.00    -0.090 I 
ENDROOT
TORSDOF 0
ENDMDL
MODEL 8
REMARK VINA RESULT:      -2.2     12.492     12.833
REMARK  0 active torsions:
REMARK  status: ('A' for Active; 'I' for Inactive)
ROOT
HETATM    1  C   LIG     1      13.579  31.036  16.617  1.00  0.00     0.016 C 
HETATM    2  C   LIG     1      13.265  30.322  15.311  1.00  0.00     0.075 C 
HETATM    3  I   LIG     1      15.042  30.089  14.147  1.00  0.00    -0.090 I 
ENDROOT
TORSDOF 0
ENDMDL
MODEL 9
REMARK VINA RESULT:      -2.2      5.578      5.578
REMARK  0 active torsions:
REMARK  status: ('A' for Active; 'I' for Inactive)
ROOT
HETATM    1  C   LIG     1      18.767  36.863  19.766  1.00  0.00     0.016 C 
HETATM    2  C   LIG     1      17.907  37.243  20.962  1.00  0.00     0.075 C 
HETATM    3  I   LIG     1      16.678  35.594  21.545  1.00  0.00    -0.090 I 
ENDROOT
TORSDOF 0
ENDMDL
MODEL 10
REMARK VINA RESULT:      -2.2      3.966      4.034
REMARK  0 active torsions:
REMARK  status: ('A' for Active; 'I' for Inactive)
ROOT
HETATM    1  C   LIG     1      16.936  35.317  22.419  1.00  0.00     0.016 C 
HETATM    2  C   LIG     1      17.109  36.458  21.428  1.00  0.00     0.075 C 
HETATM    3  I   LIG     1      17.293  38.318  22.464  1.00  0.00    -0.090 I 
ENDROOT
TORSDOF 0
ENDMDL
MODEL 11
REMARK VINA RESULT:      -2.1     11.853     11.938
REMARK  0 active torsions:
REMARK  status: ('A' for Active; 'I' for Inactive)
ROOT
HETATM    1  C   LIG     1      16.016  43.858  34.730  1.00  0.00     0.016 C 
HETATM    2  C   LIG     1      15.691  45.026  33.812  1.00  0.00     0.075 C 
HETATM    3  I   LIG     1      17.486  46.012  33.202  1.00  0.00    -0.090 I 
ENDROOT
TORSDOF 0
ENDMDL
MODEL 12
REMARK VINA RESULT:      -2.1      9.169      9.370
REMARK  0 active torsions:
REMARK  status: ('A' for Active; 'I' for Inactive)
ROOT
HETATM    1  C   LIG     1      14.945  31.703  19.777  1.00  0.00     0.016 C 
HETATM    2  C   LIG     1      15.088  32.497  18.487  1.00  0.00     0.075 C 
HETATM    3  I   LIG     1      13.786  31.713  16.985  1.00  0.00    -0.090 I 
ENDROOT
TORSDOF 0
ENDMDL
MODEL 13
REMARK VINA RESULT:      -2.1      4.339      4.439
REMARK  0 active torsions:
REMARK  status: ('A' for Active; 'I' for Inactive)
ROOT
HETATM    1  C   LIG     1      15.806  37.833  22.882  1.00  0.00     0.016 C 
HETATM    2  C   LIG     1      16.824  36.704  22.871  1.00  0.00     0.075 C 
HETATM    3  I   LIG     1      16.284  35.230  21.421  1.00  0.00    -0.090 I 
ENDROOT
TORSDOF 0
ENDMDL
MODEL 14
REMARK VINA RESULT:      -2.1     12.156     12.395
REMARK  0 active torsions:
REMARK  status: ('A' for Active; 'I' for Inactive)
ROOT
HETATM    1  C   LIG     1      14.143  30.047  14.621  1.00  0.00     0.016 C 
HETATM    2  C   LIG     1      13.104  30.494  15.638  1.00  0.00     0.075 C 
HETATM    3  I   LIG     1      13.965  31.875  17.023  1.00  0.00    -0.090 I 
ENDROOT
TORSDOF 0
ENDMDL
MODEL 15
REMARK VINA RESULT:      -2.1     13.019     13.054
REMARK  0 active torsions:
REMARK  status: ('A' for Active; 'I' for Inactive)
ROOT
HETATM    1  C   LIG     1      15.190  30.289  14.005  1.00  0.00     0.016 C 
HETATM    2  C   LIG     1      13.863  29.926  14.655  1.00  0.00     0.075 C 
HETATM    3  I   LIG     1      13.542  31.117  16.400  1.00  0.00    -0.090 I 
ENDROOT
TORSDOF 0
ENDMDL
MODEL 16
REMARK VINA RESULT:      -2.0     13.104     13.104
REMARK  0 active torsions:
REMARK  status: ('A' for Active; 'I' for Inactive)
ROOT
HETATM    1  C   LIG     1      15.262  29.561  14.154  1.00  0.00     0.016 C 
HETATM    2  C   LIG     1      15.461  30.948  13.563  1.00  0.00     0.075 C 
HETATM    3  I   LIG     1      16.249  32.278  15.038  1.00  0.00    -0.090 I 
ENDROOT
TORSDOF 0
ENDMDL
MODEL 17
REMARK VINA RESULT:      -1.9     12.870     13.132
REMARK  0 active torsions:
REMARK  status: ('A' for Active; 'I' for Inactive)
ROOT
HETATM    1  C   LIG     1      16.484  32.489  13.579  1.00  0.00     0.016 C 
HETATM    2  C   LIG     1      15.793  31.788  14.738  1.00  0.00     0.075 C 
HETATM    3  I   LIG     1      15.033  29.891  14.110  1.00  0.00    -0.090 I 
ENDROOT
TORSDOF 0
ENDMDL
MODEL 18
REMARK VINA RESULT:      -1.9     15.226     15.421
REMARK  0 active torsions:
REMARK  status: ('A' for Active; 'I' for Inactive)
ROOT
HETATM    1  C   LIG     1      20.827  31.592  10.386  1.00  0.00     0.016 C 
HETATM    2  C   LIG     1      19.851  32.615  10.948  1.00  0.00     0.075 C 
HETATM    3  I   LIG     1      20.858  33.945  12.284  1.00  0.00    -0.090 I 
ENDROOT
TORSDOF 0
ENDMDL
MODEL 19
REMARK VINA RESULT:      -1.9     19.704     19.779
REMARK  0 active torsions:
REMARK  status: ('A' for Active; 'I' for Inactive)
ROOT
HETATM    1  C   LIG     1       4.347  44.573  14.184  1.00  0.00     0.016 C 
HETATM    2  C   LIG     1       2.922  44.231  14.593  1.00  0.00     0.075 C 
HETATM    3  I   LIG     1       2.923  43.083  16.395  1.00  0.00    -0.090 I 
ENDROOT
TORSDOF 0
ENDMDL
MODEL 20
REMARK VINA RESULT:      -1.9      5.226      5.350
REMARK  0 active torsions:
REMARK  status: ('A' for Active; 'I' for Inactive)
ROOT
HETATM    1  C   LIG     1      17.171  35.533  21.923  1.00  0.00     0.016 C 
HETATM    2  C   LIG     1      16.995  35.908  20.459  1.00  0.00     0.075 C 
HETATM    3  I   LIG     1      18.653  37.078  19.789  1.00  0.00    -0.090 I 
ENDROOT
TORSDOF 0
ENDMDL
