REMARK  0 active torsions:
REMARK  status: ('A' for Active; 'I' for Inactive)
ROOT
HETATM    1  C   LIG     1      -0.799   0.144  -0.057  1.00  0.00     0.016 C 
HETATM    2  C   LIG     1       0.637  -0.336   0.087  1.00  0.00     0.075 C 
HETATM    3  I   LIG     1       1.994   1.295  -0.170  1.00  0.00    -0.090 I 
ENDROOT
TORSDOF 0
