MODEL 1
REMARK VINA RESULT:      -2.6      0.000      0.000
REMARK  0 active torsions:
REMARK  status: ('A' for Active; 'I' for Inactive)
ROOT
HETATM    1  C   LIG     1      18.441  36.530  26.619  1.00  0.00     0.229 C 
HETATM    2 CL   LIG     1      18.188  34.811  26.244  1.00  0.00    -0.114 Cl
HETATM    3 CL   LIG     1      17.422  37.526  25.556  1.00  0.00    -0.114 Cl
ENDROOT
TORSDOF 0
ENDMDL
MODEL 2
REMARK VINA RESULT:      -2.6      0.044      2.370
REMARK  0 active torsions:
REMARK  status: ('A' for Active; 'I' for Inactive)
ROOT
HETATM    1  C   LIG     1      18.450  36.505  26.636  1.00  0.00     0.229 C 
HETATM    2 CL   LIG     1      17.448  37.547  25.601  1.00  0.00    -0.114 Cl
HETATM    3 CL   LIG     1      18.157  34.801  26.223  1.00  0.00    -0.114 Cl
ENDROOT
TORSDOF 0
ENDMDL
MODEL 3
REMARK VINA RESULT:      -2.6      2.000      2.043
REMARK  0 active torsions:
REMARK  status: ('A' for Active; 'I' for Inactive)
ROOT
HETATM    1  C   LIG     1      17.505  35.926  25.250  1.00  0.00     0.229 C 
HETATM    2 CL   LIG     1      18.357  34.815  26.346  1.00  0.00    -0.114 Cl
HETATM    3 CL   LIG     1      17.138  35.089  23.725  1.00  0.00    -0.114 Cl
ENDROOT
TORSDOF 0
ENDMDL
MODEL 4
REMARK VINA RESULT:      -2.4      6.789      6.789
REMARK  0 active torsions:
REMARK  status: ('A' for Active; 'I' for Inactive)
ROOT
HETATM    1  C   LIG     1      19.989  38.612  19.622  1.00  0.00     0.229 C 
HETATM    2 CL   LIG     1      19.313  36.974  19.473  1.00  0.00    -0.114 Cl
HETATM    3 CL   LIG     1      18.918  39.606  20.633  1.00  0.00    -0.114 Cl
ENDROOT
TORSDOF 0
ENDMDL
MODEL 5
REMARK VINA RESULT:      -2.3      6.417      6.828
REMARK  0 active torsions:
REMARK  status: ('A' for Active; 'I' for Inactive)
ROOT
HETATM    1  C   LIG     1      19.778  38.857  19.924  1.00  0.00     0.229 C 
HETATM    2 CL   LIG     1      18.668  39.437  21.187  1.00  0.00    -0.114 Cl
HETATM    3 CL   LIG     1      19.362  37.183  19.492  1.00  0.00    -0.114 Cl
ENDROOT
TORSDOF 0
ENDMDL
MODEL 6
REMARK VINA RESULT:      -2.2      6.989      7.312
REMARK  0 active torsions:
REMARK  status: ('A' for Active; 'I' for Inactive)
ROOT
HETATM    1  C   LIG     1      12.734  31.903  27.184  1.00  0.00     0.229 C 
HETATM    2 CL   LIG     1      13.928  31.403  28.403  1.00  0.00    -0.114 Cl
HETATM    3 CL   LIG     1      12.548  30.616  25.972  1.00  0.00    -0.114 Cl
ENDROOT
TORSDOF 0
ENDMDL
MODEL 7
REMARK VINA RESULT:      -2.2      6.988      7.338
REMARK  0 active torsions:
REMARK  status: ('A' for Active; 'I' for Inactive)
ROOT
HETATM    1  C   LIG     1      12.738  31.905  27.185  1.00  0.00     0.229 C 
HETATM    2 CL   LIG     1      12.549  30.619  25.972  1.00  0.00    -0.114 Cl
HETATM    3 CL   LIG     1      13.929  31.400  28.404  1.00  0.00    -0.114 Cl
ENDROOT
TORSDOF 0
ENDMDL
MODEL 8
REMARK VINA RESULT:      -2.2      5.589      5.879
REMARK  0 active torsions:
REMARK  status: ('A' for Active; 'I' for Inactive)
ROOT
HETATM    1  C   LIG     1      17.884  36.502  20.538  1.00  0.00     0.229 C 
HETATM    2 CL   LIG     1      19.295  36.806  19.499  1.00  0.00    -0.114 Cl
HETATM    3 CL   LIG     1      17.631  37.892  21.617  1.00  0.00    -0.114 Cl
ENDROOT
TORSDOF 0
ENDMDL
MODEL 9
REMARK VINA RESULT:      -2.2      2.897      3.851
REMARK  0 active torsions:
REMARK  status: ('A' for Active; 'I' for Inactive)
ROOT
HETATM    1  C   LIG     1      16.761  37.572  23.793  1.00  0.00     0.229 C 
HETATM    2 CL   LIG     1      16.696  38.927  22.643  1.00  0.00    -0.114 Cl
HETATM    3 CL   LIG     1      17.285  38.168  25.383  1.00  0.00    -0.114 Cl
ENDROOT
TORSDOF 0
ENDMDL
MODEL 10
REMARK VINA RESULT:      -2.1      5.207      5.228
REMARK  0 active torsions:
REMARK  status: ('A' for Active; 'I' for Inactive)
ROOT
HETATM    1  C   LIG     1      17.328  36.731  21.280  1.00  0.00     0.229 C 
HETATM    2 CL   LIG     1      17.139  35.108  21.980  1.00  0.00    -0.114 Cl
HETATM    3 CL   LIG     1      18.565  36.686  20.003  1.00  0.00    -0.114 Cl
ENDROOT
TORSDOF 0
ENDMDL
MODEL 11
REMARK VINA RESULT:      -2.1      7.814      8.142
REMARK  0 active torsions:
REMARK  status: ('A' for Active; 'I' for Inactive)
ROOT
HETATM    1  C   LIG     1      15.278  32.482  19.291  1.00  0.00     0.229 C 
HETATM    2 CL   LIG     1      15.753  33.750  20.443  1.00  0.00    -0.114 Cl
HETATM    3 CL   LIG     1      14.855  31.002  20.181  1.00  0.00    -0.114 Cl
ENDROOT
TORSDOF 0
ENDMDL
MODEL 12
REMARK VINA RESULT:      -2.1      4.420      4.420
REMARK  0 active torsions:
REMARK  status: ('A' for Active; 'I' for Inactive)
ROOT
HETATM    1  C   LIG     1      16.456  35.107  21.999  1.00  0.00     0.229 C 
HETATM    2 CL   LIG     1      17.132  35.091  23.643  1.00  0.00    -0.114 Cl
HETATM    3 CL   LIG     1      17.489  36.096  20.942  1.00  0.00    -0.114 Cl
ENDROOT
TORSDOF 0
ENDMDL
MODEL 13
REMARK VINA RESULT:      -2.0      3.851      4.455
REMARK  0 active torsions:
REMARK  status: ('A' for Active; 'I' for Inactive)
ROOT
HETATM    1  C   LIG     1      16.851  36.919  23.022  1.00  0.00     0.229 C 
HETATM    2 CL   LIG     1      17.603  37.815  21.683  1.00  0.00    -0.114 Cl
HETATM    3 CL   LIG     1      16.997  35.173  22.723  1.00  0.00    -0.114 Cl
ENDROOT
TORSDOF 0
ENDMDL
MODEL 14
REMARK VINA RESULT:      -2.0     13.217     13.329
REMARK  0 active torsions:
REMARK  status: ('A' for Active; 'I' for Inactive)
ROOT
HETATM    1  C   LIG     1      14.547  30.746  15.135  1.00  0.00     0.229 C 
HETATM    2 CL   LIG     1      14.843  29.381  14.035  1.00  0.00    -0.114 Cl
HETATM    3 CL   LIG     1      12.918  30.601  15.834  1.00  0.00    -0.114 Cl
ENDROOT
TORSDOF 0
ENDMDL
MODEL 15
REMARK VINA RESULT:      -2.0     13.093     13.272
REMARK  0 active torsions:
REMARK  status: ('A' for Active; 'I' for Inactive)
ROOT
HETATM    1  C   LIG     1      14.520  30.861  15.306  1.00  0.00     0.229 C 
HETATM    2 CL   LIG     1      12.888  30.636  15.975  1.00  0.00    -0.114 Cl
HETATM    3 CL   LIG     1      14.789  29.695  13.992  1.00  0.00    -0.114 Cl
ENDROOT
TORSDOF 0
ENDMDL
MODEL 16
REMARK VINA RESULT:      -2.0     13.744     13.876
REMARK  0 active torsions:
REMARK  status: ('A' for Active; 'I' for Inactive)
ROOT
HETATM    1  C   LIG     1      14.827  29.704  14.142  1.00  0.00     0.229 C 
HETATM    2 CL   LIG     1      15.591  31.139  13.421  1.00  0.00    -0.114 Cl
HETATM    3 CL   LIG     1      13.452  30.208  15.149  1.00  0.00    -0.114 Cl
ENDROOT
TORSDOF 0
ENDMDL
MODEL 17
REMARK VINA RESULT:      -2.0      5.783      5.886
REMARK  0 active torsions:
REMARK  status: ('A' for Active; 'I' for Inactive)
ROOT
HETATM    1  C   LIG     1      16.260  35.168  20.750  1.00  0.00     0.229 C 
HETATM    2 CL   LIG     1      17.019  35.114  22.357  1.00  0.00    -0.114 Cl
HETATM    3 CL   LIG     1      15.660  33.550  20.322  1.00  0.00    -0.114 Cl
ENDROOT
TORSDOF 0
ENDMDL
MODEL 18
REMARK VINA RESULT:      -1.9     13.136     13.136
REMARK  0 active torsions:
REMARK  status: ('A' for Active; 'I' for Inactive)
ROOT
HETATM    1  C   LIG     1      14.377  30.205  14.609  1.00  0.00     0.229 C 
HETATM    2 CL   LIG     1      13.060  30.684  15.703  1.00  0.00    -0.114 Cl
HETATM    3 CL   LIG     1      15.541  31.541  14.462  1.00  0.00    -0.114 Cl
ENDROOT
TORSDOF 0
ENDMDL
MODEL 19
REMARK VINA RESULT:      -1.9     11.492     11.621
REMARK  0 active torsions:
REMARK  status: ('A' for Active; 'I' for Inactive)
ROOT
HETATM    1  C   LIG     1      13.783  31.891  17.104  1.00  0.00     0.229 C 
HETATM    2 CL   LIG     1      15.178  32.510  16.190  1.00  0.00    -0.114 Cl
HETATM    3 CL   LIG     1      12.934  30.668  16.132  1.00  0.00    -0.114 Cl
ENDROOT
TORSDOF 0
ENDMDL
MODEL 20
REMARK VINA RESULT:      -1.9     19.070     19.513
REMARK  0 active torsions:
REMARK  status: ('A' for Active; 'I' for Inactive)
ROOT
HETATM    1  C   LIG     1       2.836  43.704  15.438  1.00  0.00     0.229 C 
HETATM    2 CL   LIG     1       4.244  44.330  14.551  1.00  0.00    -0.114 Cl
HETATM    3 CL   LIG     1       3.389  42.659  16.767  1.00  0.00    -0.114 Cl
ENDROOT
TORSDOF 0
ENDMDL
