REMARK  0 active torsions:
REMARK  status: ('A' for Active; 'I' for Inactive)
ROOT
HETATM    1  C   LIG     1      -0.006  -0.154   0.007  1.00  0.00     0.229 C 
HETATM    2 CL   LIG     1       1.485   0.814  -0.020  1.00  0.00    -0.114 Cl
HETATM    3 CL   LIG     1      -1.416   0.927  -0.056  1.00  0.00    -0.114 Cl
ENDROOT
TORSDOF 0
