REMARK  1 active torsions:
REMARK  status: ('A' for Active; 'I' for Inactive)
REMARK    1  A    between atoms: C_2  and  S_3 
ROOT
HETATM    1  C   LIG     1      -0.859  -0.398   0.049  1.00  0.00     0.015 C 
HETATM    2  C   LIG     1       0.229   0.629  -0.231  1.00  0.00     0.066 C 
ENDROOT
BRANCH   2   3
HETATM    3  S   LIG     1       1.640   0.386   0.891  1.00  0.00    -0.183 SA
HETATM    4  H   LIG     1       1.996  -0.844   0.304  1.00  0.00     0.101 HD
ENDBRANCH   2   3
TORSDOF 1
