MODEL 1
REMARK VINA RESULT:      -2.5      0.000      0.000
REMARK  1 active torsions:
REMARK  status: ('A' for Active; 'I' for Inactive)
REMARK    1  A    between atoms: C_2  and  S_3 
ROOT
HETATM    1  C   LIG     1      18.030  34.979  26.188  1.00  0.00     0.015 C 
HETATM    2  C   LIG     1      18.300  36.431  26.554  1.00  0.00     0.066 C 
ENDROOT
BRANCH   2   3
HETATM    3  S   LIG     1      17.495  37.549  25.367  1.00  0.00    -0.183 SA
HETATM    4  H   LIG     1      17.110  36.496  24.515  1.00  0.00     0.101 HD
ENDBRANCH   2   3
TORSDOF 1
ENDMDL
MODEL 2
REMARK VINA RESULT:      -2.3      1.379      1.691
REMARK  1 active torsions:
REMARK  status: ('A' for Active; 'I' for Inactive)
REMARK    1  A    between atoms: C_2  and  S_3 
ROOT
HETATM    1  C   LIG     1      18.362  36.690  26.241  1.00  0.00     0.015 C 
HETATM    2  C   LIG     1      17.454  37.776  25.681  1.00  0.00     0.066 C 
ENDROOT
BRANCH   2   3
HETATM    3  S   LIG     1      16.956  37.375  23.978  1.00  0.00    -0.183 SA
HETATM    4  H   LIG     1      15.617  37.754  24.197  1.00  0.00     0.101 HD
ENDBRANCH   2   3
TORSDOF 1
ENDMDL
MODEL 3
REMARK VINA RESULT:      -2.2      1.897      2.272
REMARK  1 active torsions:
REMARK  status: ('A' for Active; 'I' for Inactive)
REMARK    1  A    between atoms: C_2  and  S_3 
ROOT
HETATM    1  C   LIG     1      17.389  37.701  25.429  1.00  0.00     0.015 C 
HETATM    2  C   LIG     1      18.347  36.751  26.134  1.00  0.00     0.066 C 
ENDROOT
BRANCH   2   3
HETATM    3  S   LIG     1      17.732  35.041  26.044  1.00  0.00    -0.183 SA
HETATM    4  H   LIG     1      19.005  34.516  25.744  1.00  0.00     0.101 HD
ENDBRANCH   2   3
TORSDOF 1
ENDMDL
MODEL 4
REMARK VINA RESULT:      -2.0      6.492      6.588
REMARK  1 active torsions:
REMARK  status: ('A' for Active; 'I' for Inactive)
REMARK    1  A    between atoms: C_2  and  S_3 
ROOT
HETATM    1  C   LIG     1      20.209  38.715  19.618  1.00  0.00     0.015 C 
HETATM    2  C   LIG     1      18.868  39.333  19.989  1.00  0.00     0.066 C 
ENDROOT
BRANCH   2   3
HETATM    3  S   LIG     1      18.529  39.104  21.761  1.00  0.00    -0.183 SA
HETATM    4  H   LIG     1      19.881  38.858  22.069  1.00  0.00     0.101 HD
ENDBRANCH   2   3
TORSDOF 1
ENDMDL
MODEL 5
REMARK VINA RESULT:      -2.0      6.132      6.242
REMARK  1 active torsions:
REMARK  status: ('A' for Active; 'I' for Inactive)
REMARK    1  A    between atoms: C_2  and  S_3 
ROOT
HETATM    1  C   LIG     1      17.936  38.392  21.432  1.00  0.00     0.015 C 
HETATM    2  C   LIG     1      18.857  39.464  20.866  1.00  0.00     0.066 C 
ENDROOT
BRANCH   2   3
HETATM    3  S   LIG     1      19.963  38.757  19.608  1.00  0.00    -0.183 SA
HETATM    4  H   LIG     1      18.974  37.881  19.118  1.00  0.00     0.101 HD
ENDBRANCH   2   3
TORSDOF 1
ENDMDL
MODEL 6
REMARK VINA RESULT:      -2.0      3.568      3.808
REMARK  1 active torsions:
REMARK  status: ('A' for Active; 'I' for Inactive)
REMARK    1  A    between atoms: C_2  and  S_3 
ROOT
HETATM    1  C   LIG     1      17.321  38.677  22.441  1.00  0.00     0.015 C 
HETATM    2  C   LIG     1      16.524  37.784  23.381  1.00  0.00     0.066 C 
ENDROOT
BRANCH   2   3
HETATM    3  S   LIG     1      17.259  37.793  25.045  1.00  0.00    -0.183 SA
HETATM    4  H   LIG     1      18.167  36.762  24.735  1.00  0.00     0.101 HD
ENDBRANCH   2   3
TORSDOF 1
ENDMDL
MODEL 7
REMARK VINA RESULT:      -1.9      2.455      2.737
REMARK  1 active torsions:
REMARK  status: ('A' for Active; 'I' for Inactive)
REMARK    1  A    between atoms: C_2  and  S_3 
ROOT
HETATM    1  C   LIG     1      17.955  37.514  25.341  1.00  0.00     0.015 C 
HETATM    2  C   LIG     1      16.740  37.578  24.425  1.00  0.00     0.066 C 
ENDROOT
BRANCH   2   3
HETATM    3  S   LIG     1      17.092  38.612  22.971  1.00  0.00    -0.183 SA
HETATM    4  H   LIG     1      17.724  37.561  22.278  1.00  0.00     0.101 HD
ENDBRANCH   2   3
TORSDOF 1
ENDMDL
MODEL 8
REMARK VINA RESULT:      -1.9      8.634      8.688
REMARK  1 active torsions:
REMARK  status: ('A' for Active; 'I' for Inactive)
REMARK    1  A    between atoms: C_2  and  S_3 
ROOT
HETATM    1  C   LIG     1      14.848  31.260  20.058  1.00  0.00     0.015 C 
HETATM    2  C   LIG     1      15.320  32.567  19.437  1.00  0.00     0.066 C 
ENDROOT
BRANCH   2   3
HETATM    3  S   LIG     1      14.951  32.598  17.656  1.00  0.00    -0.183 SA
HETATM    4  H   LIG     1      14.190  33.779  17.754  1.00  0.00     0.101 HD
ENDBRANCH   2   3
TORSDOF 1
ENDMDL
MODEL 9
REMARK VINA RESULT:      -1.8     12.984     13.033
REMARK  1 active torsions:
REMARK  status: ('A' for Active; 'I' for Inactive)
REMARK    1  A    between atoms: C_2  and  S_3 
ROOT
HETATM    1  C   LIG     1      13.044  30.645  15.971  1.00  0.00     0.015 C 
HETATM    2  C   LIG     1      14.449  30.937  15.462  1.00  0.00     0.066 C 
ENDROOT
BRANCH   2   3
HETATM    3  S   LIG     1      14.893  29.790  14.122  1.00  0.00    -0.183 SA
HETATM    4  H   LIG     1      13.566  29.692  13.659  1.00  0.00     0.101 HD
ENDBRANCH   2   3
TORSDOF 1
ENDMDL
MODEL 10
REMARK VINA RESULT:      -1.8     10.973     11.284
REMARK  1 active torsions:
REMARK  status: ('A' for Active; 'I' for Inactive)
REMARK    1  A    between atoms: C_2  and  S_3 
ROOT
HETATM    1  C   LIG     1      13.239  30.791  16.066  1.00  0.00     0.015 C 
HETATM    2  C   LIG     1      13.833  31.681  17.148  1.00  0.00     0.066 C 
ENDROOT
BRANCH   2   3
HETATM    3  S   LIG     1      15.217  32.657  16.483  1.00  0.00    -0.183 SA
HETATM    4  H   LIG     1      14.384  33.728  16.105  1.00  0.00     0.101 HD
ENDBRANCH   2   3
TORSDOF 1
ENDMDL
MODEL 11
REMARK VINA RESULT:      -1.8      9.378      9.681
REMARK  1 active torsions:
REMARK  status: ('A' for Active; 'I' for Inactive)
REMARK    1  A    between atoms: C_2  and  S_3 
ROOT
HETATM    1  C   LIG     1      13.914  31.573  17.188  1.00  0.00     0.015 C 
HETATM    2  C   LIG     1      14.916  32.491  17.873  1.00  0.00     0.066 C 
ENDROOT
BRANCH   2   3
HETATM    3  S   LIG     1      15.130  32.016  19.615  1.00  0.00    -0.183 SA
HETATM    4  H   LIG     1      16.487  32.395  19.634  1.00  0.00     0.101 HD
ENDBRANCH   2   3
TORSDOF 1
ENDMDL
MODEL 12
REMARK VINA RESULT:      -1.8     14.541     14.629
REMARK  1 active torsions:
REMARK  status: ('A' for Active; 'I' for Inactive)
REMARK    1  A    between atoms: C_2  and  S_3 
ROOT
HETATM    1  C   LIG     1      13.956  29.813  14.462  1.00  0.00     0.015 C 
HETATM    2  C   LIG     1      15.330  29.359  13.992  1.00  0.00     0.066 C 
ENDROOT
BRANCH   2   3
HETATM    3  S   LIG     1      15.289  27.610  13.495  1.00  0.00    -0.183 SA
HETATM    4  H   LIG     1      16.524  27.325  14.110  1.00  0.00     0.101 HD
ENDBRANCH   2   3
TORSDOF 1
ENDMDL
MODEL 13
REMARK VINA RESULT:      -1.8     14.350     14.443
REMARK  1 active torsions:
REMARK  status: ('A' for Active; 'I' for Inactive)
REMARK    1  A    between atoms: C_2  and  S_3 
ROOT
HETATM    1  C   LIG     1      22.466  35.095  13.111  1.00  0.00     0.015 C 
HETATM    2  C   LIG     1      21.408  34.094  12.669  1.00  0.00     0.066 C 
ENDROOT
BRANCH   2   3
HETATM    3  S   LIG     1      20.822  34.484  10.991  1.00  0.00    -0.183 SA
HETATM    4  H   LIG     1      21.267  35.819  11.061  1.00  0.00     0.101 HD
ENDBRANCH   2   3
TORSDOF 1
ENDMDL
MODEL 14
REMARK VINA RESULT:      -1.8     13.333     13.397
REMARK  1 active torsions:
REMARK  status: ('A' for Active; 'I' for Inactive)
REMARK    1  A    between atoms: C_2  and  S_3 
ROOT
HETATM    1  C   LIG     1      14.272  29.916  14.444  1.00  0.00     0.015 C 
HETATM    2  C   LIG     1      15.303  30.643  13.592  1.00  0.00     0.066 C 
ENDROOT
BRANCH   2   3
HETATM    3  S   LIG     1      16.035  32.026  14.520  1.00  0.00    -0.183 SA
HETATM    4  H   LIG     1      16.512  31.188  15.547  1.00  0.00     0.101 HD
ENDBRANCH   2   3
TORSDOF 1
ENDMDL
MODEL 15
REMARK VINA RESULT:      -1.7      3.555      3.555
REMARK  1 active torsions:
REMARK  status: ('A' for Active; 'I' for Inactive)
REMARK    1  A    between atoms: C_2  and  S_3 
ROOT
HETATM    1  C   LIG     1      16.830  35.788  22.528  1.00  0.00     0.015 C 
HETATM    2  C   LIG     1      16.850  37.043  23.389  1.00  0.00     0.066 C 
ENDROOT
BRANCH   2   3
HETATM    3  S   LIG     1      17.237  38.505  22.377  1.00  0.00    -0.183 SA
HETATM    4  H   LIG     1      17.474  39.319  23.502  1.00  0.00     0.101 HD
ENDBRANCH   2   3
TORSDOF 1
ENDMDL
MODEL 16
REMARK VINA RESULT:      -1.7     12.940     12.989
REMARK  1 active torsions:
REMARK  status: ('A' for Active; 'I' for Inactive)
REMARK    1  A    between atoms: C_2  and  S_3 
ROOT
HETATM    1  C   LIG     1      15.219  30.503  14.153  1.00  0.00     0.015 C 
HETATM    2  C   LIG     1      13.938  30.084  14.861  1.00  0.00     0.066 C 
ENDROOT
BRANCH   2   3
HETATM    3  S   LIG     1      13.701  31.057  16.379  1.00  0.00    -0.183 SA
HETATM    4  H   LIG     1      14.862  30.541  16.987  1.00  0.00     0.101 HD
ENDBRANCH   2   3
TORSDOF 1
ENDMDL
MODEL 17
REMARK VINA RESULT:      -1.7      5.477      5.616
REMARK  1 active torsions:
REMARK  status: ('A' for Active; 'I' for Inactive)
REMARK    1  A    between atoms: C_2  and  S_3 
ROOT
HETATM    1  C   LIG     1      18.238  38.565  21.309  1.00  0.00     0.015 C 
HETATM    2  C   LIG     1      18.297  37.292  20.477  1.00  0.00     0.066 C 
ENDROOT
BRANCH   2   3
HETATM    3  S   LIG     1      17.157  36.041  21.143  1.00  0.00    -0.183 SA
HETATM    4  H   LIG     1      16.012  36.743  20.715  1.00  0.00     0.101 HD
ENDBRANCH   2   3
TORSDOF 1
ENDMDL
MODEL 18
REMARK VINA RESULT:      -1.7      5.313      5.421
REMARK  1 active torsions:
REMARK  status: ('A' for Active; 'I' for Inactive)
REMARK    1  A    between atoms: C_2  and  S_3 
ROOT
HETATM    1  C   LIG     1      16.928  37.001  22.023  1.00  0.00     0.015 C 
HETATM    2  C   LIG     1      17.249  36.066  20.866  1.00  0.00     0.066 C 
ENDROOT
BRANCH   2   3
HETATM    3  S   LIG     1      15.941  34.816  20.674  1.00  0.00    -0.183 SA
HETATM    4  H   LIG     1      14.990  35.591  21.366  1.00  0.00     0.101 HD
ENDBRANCH   2   3
TORSDOF 1
ENDMDL
MODEL 19
REMARK VINA RESULT:      -1.6     11.420     11.705
REMARK  1 active torsions:
REMARK  status: ('A' for Active; 'I' for Inactive)
REMARK    1  A    between atoms: C_2  and  S_3 
ROOT
HETATM    1  C   LIG     1      15.009  30.894  14.792  1.00  0.00     0.015 C 
HETATM    2  C   LIG     1      15.718  32.155  15.267  1.00  0.00     0.066 C 
ENDROOT
BRANCH   2   3
HETATM    3  S   LIG     1      14.928  32.803  16.771  1.00  0.00    -0.183 SA
HETATM    4  H   LIG     1      13.932  31.807  16.772  1.00  0.00     0.101 HD
ENDBRANCH   2   3
TORSDOF 1
ENDMDL
MODEL 20
REMARK VINA RESULT:      -1.6     11.265     11.462
REMARK  1 active torsions:
REMARK  status: ('A' for Active; 'I' for Inactive)
REMARK    1  A    between atoms: C_2  and  S_3 
ROOT
HETATM    1  C   LIG     1      13.817  31.214  16.584  1.00  0.00     0.015 C 
HETATM    2  C   LIG     1      14.905  32.275  16.510  1.00  0.00     0.066 C 
ENDROOT
BRANCH   2   3
HETATM    3  S   LIG     1      15.879  32.085  14.986  1.00  0.00    -0.183 SA
HETATM    4  H   LIG     1      14.734  31.996  14.171  1.00  0.00     0.101 HD
ENDBRANCH   2   3
TORSDOF 1
ENDMDL
