MODEL 1
REMARK VINA RESULT:      -3.0      0.000      0.000
REMARK  0 active torsions:
REMARK  status: ('A' for Active; 'I' for Inactive)
ROOT
HETATM    1  C   LIG     1      16.637  37.313  23.057  1.00  0.00     0.201 C 
HETATM    2 BR   LIG     1      16.866  35.477  22.496  1.00  0.00    -0.067 Br
HETATM    3 BR   LIG     1      17.650  38.475  21.890  1.00  0.00    -0.067 Br
HETATM    4 BR   LIG     1      17.267  37.515  24.874  1.00  0.00    -0.067 Br
ENDROOT
TORSDOF 0
ENDMDL
MODEL 2
REMARK VINA RESULT:      -3.0      0.036      2.736
REMARK  0 active torsions:
REMARK  status: ('A' for Active; 'I' for Inactive)
ROOT
HETATM    1  C   LIG     1      16.634  37.275  23.060  1.00  0.00     0.201 C 
HETATM    2 BR   LIG     1      17.623  38.454  21.889  1.00  0.00    -0.067 Br
HETATM    3 BR   LIG     1      17.274  37.481  24.872  1.00  0.00    -0.067 Br
HETATM    4 BR   LIG     1      16.884  35.445  22.491  1.00  0.00    -0.067 Br
ENDROOT
TORSDOF 0
ENDMDL
MODEL 3
REMARK VINA RESULT:      -3.0      0.063      2.731
REMARK  0 active torsions:
REMARK  status: ('A' for Active; 'I' for Inactive)
ROOT
HETATM    1  C   LIG     1      16.615  37.346  23.006  1.00  0.00     0.201 C 
HETATM    2 BR   LIG     1      17.228  37.544  24.829  1.00  0.00    -0.067 Br
HETATM    3 BR   LIG     1      16.853  35.512  22.442  1.00  0.00    -0.067 Br
HETATM    4 BR   LIG     1      17.636  38.514  21.853  1.00  0.00    -0.067 Br
ENDROOT
TORSDOF 0
ENDMDL
MODEL 4
REMARK VINA RESULT:      -2.8      1.592      3.443
REMARK  0 active torsions:
REMARK  status: ('A' for Active; 'I' for Inactive)
ROOT
HETATM    1  C   LIG     1      17.092  36.982  21.463  1.00  0.00     0.201 C 
HETATM    2 BR   LIG     1      17.578  38.395  22.689  1.00  0.00    -0.067 Br
HETATM    3 BR   LIG     1      16.947  35.313  22.428  1.00  0.00    -0.067 Br
HETATM    4 BR   LIG     1      18.449  36.821  20.096  1.00  0.00    -0.067 Br
ENDROOT
TORSDOF 0
ENDMDL
MODEL 5
REMARK VINA RESULT:      -2.8      2.200      3.157
REMARK  0 active torsions:
REMARK  status: ('A' for Active; 'I' for Inactive)
ROOT
HETATM    1  C   LIG     1      17.588  36.263  21.197  1.00  0.00     0.201 C 
HETATM    2 BR   LIG     1      18.664  36.915  19.729  1.00  0.00    -0.067 Br
HETATM    3 BR   LIG     1      16.057  35.308  20.500  1.00  0.00    -0.067 Br
HETATM    4 BR   LIG     1      16.984  37.756  22.266  1.00  0.00    -0.067 Br
ENDROOT
TORSDOF 0
ENDMDL
MODEL 6
REMARK VINA RESULT:      -2.7      2.237      3.241
REMARK  0 active torsions:
REMARK  status: ('A' for Active; 'I' for Inactive)
ROOT
HETATM    1  C   LIG     1      17.773  36.395  21.084  1.00  0.00     0.201 C 
HETATM    2 BR   LIG     1      16.203  35.416  20.522  1.00  0.00    -0.067 Br
HETATM    3 BR   LIG     1      17.234  37.949  22.100  1.00  0.00    -0.067 Br
HETATM    4 BR   LIG     1      18.773  36.957  19.527  1.00  0.00    -0.067 Br
ENDROOT
TORSDOF 0
ENDMDL
MODEL 7
REMARK VINA RESULT:      -2.7      2.229      3.384
REMARK  0 active torsions:
REMARK  status: ('A' for Active; 'I' for Inactive)
ROOT
HETATM    1  C   LIG     1      17.746  36.374  21.105  1.00  0.00     0.201 C 
HETATM    2 BR   LIG     1      17.190  37.925  22.116  1.00  0.00    -0.067 Br
HETATM    3 BR   LIG     1      18.768  36.941  19.564  1.00  0.00    -0.067 Br
HETATM    4 BR   LIG     1      16.186  35.395  20.519  1.00  0.00    -0.067 Br
ENDROOT
TORSDOF 0
ENDMDL
MODEL 8
REMARK VINA RESULT:      -2.7      1.402      2.322
REMARK  0 active torsions:
REMARK  status: ('A' for Active; 'I' for Inactive)
ROOT
HETATM    1  C   LIG     1      17.323  37.631  23.154  1.00  0.00     0.201 C 
HETATM    2 BR   LIG     1      18.209  39.009  22.128  1.00  0.00    -0.067 Br
HETATM    3 BR   LIG     1      15.459  37.546  22.645  1.00  0.00    -0.067 Br
HETATM    4 BR   LIG     1      17.459  38.043  25.038  1.00  0.00    -0.067 Br
ENDROOT
TORSDOF 0
ENDMDL
MODEL 9
REMARK VINA RESULT:      -2.7      1.406      2.633
REMARK  0 active torsions:
REMARK  status: ('A' for Active; 'I' for Inactive)
ROOT
HETATM    1  C   LIG     1      17.330  37.627  23.152  1.00  0.00     0.201 C 
HETATM    2 BR   LIG     1      15.462  37.558  22.657  1.00  0.00    -0.067 Br
HETATM    3 BR   LIG     1      17.482  38.025  25.038  1.00  0.00    -0.067 Br
HETATM    4 BR   LIG     1      18.217  39.006  22.128  1.00  0.00    -0.067 Br
ENDROOT
TORSDOF 0
ENDMDL
MODEL 10
REMARK VINA RESULT:      -2.7      3.972      4.924
REMARK  0 active torsions:
REMARK  status: ('A' for Active; 'I' for Inactive)
ROOT
HETATM    1  C   LIG     1      19.528  38.580  19.433  1.00  0.00     0.201 C 
HETATM    2 BR   LIG     1      18.756  39.510  20.942  1.00  0.00    -0.067 Br
HETATM    3 BR   LIG     1      18.868  39.359  17.790  1.00  0.00    -0.067 Br
HETATM    4 BR   LIG     1      19.033  36.713  19.506  1.00  0.00    -0.067 Br
ENDROOT
TORSDOF 0
ENDMDL
MODEL 11
REMARK VINA RESULT:      -2.7      7.459      8.424
REMARK  0 active torsions:
REMARK  status: ('A' for Active; 'I' for Inactive)
ROOT
HETATM    1  C   LIG     1      14.383  32.452  16.906  1.00  0.00     0.201 C 
HETATM    2 BR   LIG     1      13.312  30.932  16.377  1.00  0.00    -0.067 Br
HETATM    3 BR   LIG     1      15.908  32.608  15.727  1.00  0.00    -0.067 Br
HETATM    4 BR   LIG     1      14.996  32.205  18.723  1.00  0.00    -0.067 Br
ENDROOT
TORSDOF 0
ENDMDL
MODEL 12
REMARK VINA RESULT:      -2.7      7.457      8.789
REMARK  0 active torsions:
REMARK  status: ('A' for Active; 'I' for Inactive)
ROOT
HETATM    1  C   LIG     1      14.387  32.457  16.903  1.00  0.00     0.201 C 
HETATM    2 BR   LIG     1      15.915  32.600  15.728  1.00  0.00    -0.067 Br
HETATM    3 BR   LIG     1      14.995  32.210  18.722  1.00  0.00    -0.067 Br
HETATM    4 BR   LIG     1      13.307  30.944  16.373  1.00  0.00    -0.067 Br
ENDROOT
TORSDOF 0
ENDMDL
MODEL 13
REMARK VINA RESULT:      -2.6      7.461      8.808
REMARK  0 active torsions:
REMARK  status: ('A' for Active; 'I' for Inactive)
ROOT
HETATM    1  C   LIG     1      14.375  32.452  16.920  1.00  0.00     0.201 C 
HETATM    2 BR   LIG     1      14.992  32.189  18.733  1.00  0.00    -0.067 Br
HETATM    3 BR   LIG     1      13.293  30.943  16.382  1.00  0.00    -0.067 Br
HETATM    4 BR   LIG     1      15.897  32.609  15.738  1.00  0.00    -0.067 Br
ENDROOT
TORSDOF 0
ENDMDL
MODEL 14
REMARK VINA RESULT:      -2.6      7.007      7.926
REMARK  0 active torsions:
REMARK  status: ('A' for Active; 'I' for Inactive)
ROOT
HETATM    1  C   LIG     1      15.080  32.277  17.474  1.00  0.00     0.201 C 
HETATM    2 BR   LIG     1      13.511  31.390  16.774  1.00  0.00    -0.067 Br
HETATM    3 BR   LIG     1      15.110  32.109  19.400  1.00  0.00    -0.067 Br
HETATM    4 BR   LIG     1      15.031  34.148  16.991  1.00  0.00    -0.067 Br
ENDROOT
TORSDOF 0
ENDMDL
MODEL 15
REMARK VINA RESULT:      -2.6      6.990      7.920
REMARK  0 active torsions:
REMARK  status: ('A' for Active; 'I' for Inactive)
ROOT
HETATM    1  C   LIG     1      15.101  32.282  17.490  1.00  0.00     0.201 C 
HETATM    2 BR   LIG     1      15.031  34.152  17.004  1.00  0.00    -0.067 Br
HETATM    3 BR   LIG     1      13.552  31.373  16.775  1.00  0.00    -0.067 Br
HETATM    4 BR   LIG     1      15.114  32.118  19.416  1.00  0.00    -0.067 Br
ENDROOT
TORSDOF 0
ENDMDL
MODEL 16
REMARK VINA RESULT:      -2.6      9.839     10.443
REMARK  0 active torsions:
REMARK  status: ('A' for Active; 'I' for Inactive)
ROOT
HETATM    1  C   LIG     1      14.734  31.143  14.754  1.00  0.00     0.201 C 
HETATM    2 BR   LIG     1      15.220  29.386  14.111  1.00  0.00    -0.067 Br
HETATM    3 BR   LIG     1      16.336  32.149  15.152  1.00  0.00    -0.067 Br
HETATM    4 BR   LIG     1      13.666  30.969  16.356  1.00  0.00    -0.067 Br
ENDROOT
TORSDOF 0
ENDMDL
MODEL 17
REMARK VINA RESULT:      -2.5      9.862     10.838
REMARK  0 active torsions:
REMARK  status: ('A' for Active; 'I' for Inactive)
ROOT
HETATM    1  C   LIG     1      14.710  31.093  14.713  1.00  0.00     0.201 C 
HETATM    2 BR   LIG     1      16.277  32.133  15.161  1.00  0.00    -0.067 Br
HETATM    3 BR   LIG     1      13.600  30.892  16.284  1.00  0.00    -0.067 Br
HETATM    4 BR   LIG     1      15.254  29.349  14.081  1.00  0.00    -0.067 Br
ENDROOT
TORSDOF 0
ENDMDL
MODEL 18
REMARK VINA RESULT:      -2.5      9.893     10.700
REMARK  0 active torsions:
REMARK  status: ('A' for Active; 'I' for Inactive)
ROOT
HETATM    1  C   LIG     1      14.723  31.081  14.702  1.00  0.00     0.201 C 
HETATM    2 BR   LIG     1      13.628  30.900  16.285  1.00  0.00    -0.067 Br
HETATM    3 BR   LIG     1      15.247  29.328  14.078  1.00  0.00    -0.067 Br
HETATM    4 BR   LIG     1      16.301  32.114  15.125  1.00  0.00    -0.067 Br
ENDROOT
TORSDOF 0
ENDMDL
MODEL 19
REMARK VINA RESULT:      -2.5      1.677      2.552
REMARK  0 active torsions:
REMARK  status: ('A' for Active; 'I' for Inactive)
ROOT
HETATM    1  C   LIG     1      16.818  36.277  22.240  1.00  0.00     0.201 C 
HETATM    2 BR   LIG     1      15.264  35.627  21.291  1.00  0.00    -0.067 Br
HETATM    3 BR   LIG     1      17.076  35.232  23.846  1.00  0.00    -0.067 Br
HETATM    4 BR   LIG     1      16.553  38.133  22.714  1.00  0.00    -0.067 Br
ENDROOT
TORSDOF 0
ENDMDL
MODEL 20
REMARK VINA RESULT:      -2.5      0.909      2.353
REMARK  0 active torsions:
REMARK  status: ('A' for Active; 'I' for Inactive)
ROOT
HETATM    1  C   LIG     1      17.560  37.335  22.782  1.00  0.00     0.201 C 
HETATM    2 BR   LIG     1      17.176  37.810  24.617  1.00  0.00    -0.067 Br
HETATM    3 BR   LIG     1      17.958  38.936  21.773  1.00  0.00    -0.067 Br
HETATM    4 BR   LIG     1      16.023  36.452  22.011  1.00  0.00    -0.067 Br
ENDROOT
TORSDOF 0
ENDMDL
