REMARK  0 active torsions:
REMARK  status: ('A' for Active; 'I' for Inactive)
ROOT
HETATM    1 BR   LIG     1       1.785  -0.408  -0.336  1.00  0.00    -0.057 Br
HETATM    2  C   LIG     1      -0.041   0.012   0.141  1.00  0.00     0.249 C 
HETATM    3 CL   LIG     1      -0.487   1.586  -0.556  1.00  0.00    -0.096 Cl
HETATM    4 CL   LIG     1      -1.124  -1.246  -0.495  1.00  0.00    -0.096 Cl
ENDROOT
TORSDOF 0
