MODEL 1
REMARK VINA RESULT:      -3.3      0.000      0.000
REMARK  0 active torsions:
REMARK  status: ('A' for Active; 'I' for Inactive)
ROOT
HETATM    1 BR   LIG     1      17.668  37.498  25.380  1.00  0.00    -0.057 Br
HETATM    2  C   LIG     1      17.262  35.608  25.422  1.00  0.00     0.249 C 
HETATM    3 CL   LIG     1      17.204  34.979  23.760  1.00  0.00    -0.096 Cl
HETATM    4 CL   LIG     1      18.523  34.752  26.336  1.00  0.00    -0.096 Cl
ENDROOT
TORSDOF 0
ENDMDL
MODEL 2
REMARK VINA RESULT:      -3.2      2.190      2.692
REMARK  0 active torsions:
REMARK  status: ('A' for Active; 'I' for Inactive)
ROOT
HETATM    1 BR   LIG     1      18.023  35.053  26.232  1.00  0.00    -0.057 Br
HETATM    2  C   LIG     1      17.237  36.316  24.997  1.00  0.00     0.249 C 
HETATM    3 CL   LIG     1      18.279  37.753  24.879  1.00  0.00    -0.096 Cl
HETATM    4 CL   LIG     1      17.085  35.561  23.394  1.00  0.00    -0.096 Cl
ENDROOT
TORSDOF 0
ENDMDL
MODEL 3
REMARK VINA RESULT:      -3.1      1.600      1.600
REMARK  0 active torsions:
REMARK  status: ('A' for Active; 'I' for Inactive)
ROOT
HETATM    1 BR   LIG     1      17.274  37.836  23.539  1.00  0.00    -0.057 Br
HETATM    2  C   LIG     1      17.249  36.622  25.044  1.00  0.00     0.249 C 
HETATM    3 CL   LIG     1      17.331  34.947  24.454  1.00  0.00    -0.096 Cl
HETATM    4 CL   LIG     1      18.647  36.950  26.092  1.00  0.00    -0.096 Cl
ENDROOT
TORSDOF 0
ENDMDL
MODEL 4
REMARK VINA RESULT:      -3.0      5.641      6.176
REMARK  0 active torsions:
REMARK  status: ('A' for Active; 'I' for Inactive)
ROOT
HETATM    1 BR   LIG     1      18.501  39.151  21.556  1.00  0.00    -0.057 Br
HETATM    2  C   LIG     1      18.917  38.446  19.805  1.00  0.00     0.249 C 
HETATM    3 CL   LIG     1      20.576  38.906  19.361  1.00  0.00    -0.096 Cl
HETATM    4 CL   LIG     1      18.781  36.673  19.832  1.00  0.00    -0.096 Cl
ENDROOT
TORSDOF 0
ENDMDL
MODEL 5
REMARK VINA RESULT:      -3.0      6.160      6.844
REMARK  0 active torsions:
REMARK  status: ('A' for Active; 'I' for Inactive)
ROOT
HETATM    1 BR   LIG     1      18.706  39.269  21.011  1.00  0.00    -0.057 Br
HETATM    2  C   LIG     1      19.606  38.493  19.486  1.00  0.00     0.249 C 
HETATM    3 CL   LIG     1      19.404  36.727  19.516  1.00  0.00    -0.096 Cl
HETATM    4 CL   LIG     1      18.903  39.144  17.989  1.00  0.00    -0.096 Cl
ENDROOT
TORSDOF 0
ENDMDL
MODEL 6
REMARK VINA RESULT:      -3.0      2.339      2.996
REMARK  0 active torsions:
REMARK  status: ('A' for Active; 'I' for Inactive)
ROOT
HETATM    1 BR   LIG     1      17.204  35.193  24.492  1.00  0.00    -0.057 Br
HETATM    2  C   LIG     1      17.497  36.786  25.548  1.00  0.00     0.249 C 
HETATM    3 CL   LIG     1      18.619  36.417  26.877  1.00  0.00    -0.096 Cl
HETATM    4 CL   LIG     1      18.194  38.058  24.520  1.00  0.00    -0.096 Cl
ENDROOT
TORSDOF 0
ENDMDL
MODEL 7
REMARK VINA RESULT:      -2.9      2.420      2.420
REMARK  0 active torsions:
REMARK  status: ('A' for Active; 'I' for Inactive)
ROOT
HETATM    1 BR   LIG     1      17.608  35.056  25.938  1.00  0.00    -0.057 Br
HETATM    2  C   LIG     1      17.822  36.651  24.867  1.00  0.00     0.249 C 
HETATM    3 CL   LIG     1      16.879  36.488  23.368  1.00  0.00    -0.096 Cl
HETATM    4 CL   LIG     1      17.241  38.061  25.782  1.00  0.00    -0.096 Cl
ENDROOT
TORSDOF 0
ENDMDL
MODEL 8
REMARK VINA RESULT:      -2.9      6.704      7.107
REMARK  0 active torsions:
REMARK  status: ('A' for Active; 'I' for Inactive)
ROOT
HETATM    1 BR   LIG     1      18.887  36.841  19.565  1.00  0.00    -0.057 Br
HETATM    2  C   LIG     1      19.482  38.659  19.284  1.00  0.00     0.249 C 
HETATM    3 CL   LIG     1      18.831  39.262  17.743  1.00  0.00    -0.096 Cl
HETATM    4 CL   LIG     1      18.901  39.684  20.615  1.00  0.00    -0.096 Cl
ENDROOT
TORSDOF 0
ENDMDL
MODEL 9
REMARK VINA RESULT:      -2.9      2.204      2.776
REMARK  0 active torsions:
REMARK  status: ('A' for Active; 'I' for Inactive)
ROOT
HETATM    1 BR   LIG     1      17.449  37.780  24.989  1.00  0.00    -0.057 Br
HETATM    2  C   LIG     1      16.764  37.074  23.324  1.00  0.00     0.249 C 
HETATM    3 CL   LIG     1      17.576  37.879  21.962  1.00  0.00    -0.096 Cl
HETATM    4 CL   LIG     1      17.074  35.326  23.249  1.00  0.00    -0.096 Cl
ENDROOT
TORSDOF 0
ENDMDL
MODEL 10
REMARK VINA RESULT:      -2.9      3.342      3.852
REMARK  0 active torsions:
REMARK  status: ('A' for Active; 'I' for Inactive)
ROOT
HETATM    1 BR   LIG     1      17.319  38.183  22.570  1.00  0.00    -0.057 Br
HETATM    2  C   LIG     1      17.035  36.639  21.442  1.00  0.00     0.249 C 
HETATM    3 CL   LIG     1      18.297  36.580  20.191  1.00  0.00    -0.096 Cl
HETATM    4 CL   LIG     1      17.110  35.162  22.429  1.00  0.00    -0.096 Cl
ENDROOT
TORSDOF 0
ENDMDL
MODEL 11
REMARK VINA RESULT:      -2.8      3.606      3.690
REMARK  0 active torsions:
REMARK  status: ('A' for Active; 'I' for Inactive)
ROOT
HETATM    1 BR   LIG     1      17.412  37.899  25.152  1.00  0.00    -0.057 Br
HETATM    2  C   LIG     1      17.185  37.673  23.245  1.00  0.00     0.249 C 
HETATM    3 CL   LIG     1      15.459  37.795  22.837  1.00  0.00    -0.096 Cl
HETATM    4 CL   LIG     1      18.088  38.941  22.386  1.00  0.00    -0.096 Cl
ENDROOT
TORSDOF 0
ENDMDL
MODEL 12
REMARK VINA RESULT:      -2.8      4.772      4.987
REMARK  0 active torsions:
REMARK  status: ('A' for Active; 'I' for Inactive)
ROOT
HETATM    1 BR   LIG     1      18.915  39.290  20.524  1.00  0.00    -0.057 Br
HETATM    2  C   LIG     1      18.023  38.183  21.836  1.00  0.00     0.249 C 
HETATM    3 CL   LIG     1      16.613  39.052  22.483  1.00  0.00    -0.096 Cl
HETATM    4 CL   LIG     1      17.487  36.672  21.069  1.00  0.00    -0.096 Cl
ENDROOT
TORSDOF 0
ENDMDL
MODEL 13
REMARK VINA RESULT:      -2.8      3.533      4.052
REMARK  0 active torsions:
REMARK  status: ('A' for Active; 'I' for Inactive)
ROOT
HETATM    1 BR   LIG     1      18.124  38.979  22.086  1.00  0.00    -0.057 Br
HETATM    2  C   LIG     1      17.177  37.756  23.245  1.00  0.00     0.249 C 
HETATM    3 CL   LIG     1      17.376  38.268  24.936  1.00  0.00    -0.096 Cl
HETATM    4 CL   LIG     1      15.450  37.759  22.824  1.00  0.00    -0.096 Cl
ENDROOT
TORSDOF 0
ENDMDL
MODEL 14
REMARK VINA RESULT:      -2.8     12.924     13.029
REMARK  0 active torsions:
REMARK  status: ('A' for Active; 'I' for Inactive)
ROOT
HETATM    1 BR   LIG     1      16.331  43.897  34.798  1.00  0.00    -0.057 Br
HETATM    2  C   LIG     1      16.360  45.603  33.887  1.00  0.00     0.249 C 
HETATM    3 CL   LIG     1      17.846  45.732  32.920  1.00  0.00    -0.096 Cl
HETATM    4 CL   LIG     1      14.944  45.727  32.819  1.00  0.00    -0.096 Cl
ENDROOT
TORSDOF 0
ENDMDL
MODEL 15
REMARK VINA RESULT:      -2.7      4.223      4.315
REMARK  0 active torsions:
REMARK  status: ('A' for Active; 'I' for Inactive)
ROOT
HETATM    1 BR   LIG     1      16.801  35.238  22.007  1.00  0.00    -0.057 Br
HETATM    2  C   LIG     1      17.014  37.074  22.575  1.00  0.00     0.249 C 
HETATM    3 CL   LIG     1      17.919  37.975  21.337  1.00  0.00    -0.096 Cl
HETATM    4 CL   LIG     1      15.414  37.816  22.796  1.00  0.00    -0.096 Cl
ENDROOT
TORSDOF 0
ENDMDL
MODEL 16
REMARK VINA RESULT:      -2.7      3.359      3.990
REMARK  0 active torsions:
REMARK  status: ('A' for Active; 'I' for Inactive)
ROOT
HETATM    1 BR   LIG     1      16.849  35.484  22.274  1.00  0.00    -0.057 Br
HETATM    2  C   LIG     1      16.418  37.229  22.987  1.00  0.00     0.249 C 
HETATM    3 CL   LIG     1      16.907  37.306  24.695  1.00  0.00    -0.096 Cl
HETATM    4 CL   LIG     1      17.287  38.477  22.066  1.00  0.00    -0.096 Cl
ENDROOT
TORSDOF 0
ENDMDL
MODEL 17
REMARK VINA RESULT:      -2.7      2.529      2.682
REMARK  0 active torsions:
REMARK  status: ('A' for Active; 'I' for Inactive)
ROOT
HETATM    1 BR   LIG     1      16.217  37.372  22.866  1.00  0.00    -0.057 Br
HETATM    2  C   LIG     1      17.497  36.949  24.252  1.00  0.00     0.249 C 
HETATM    3 CL   LIG     1      17.240  38.025  25.644  1.00  0.00    -0.096 Cl
HETATM    4 CL   LIG     1      17.282  35.259  24.762  1.00  0.00    -0.096 Cl
ENDROOT
TORSDOF 0
ENDMDL
MODEL 18
REMARK VINA RESULT:      -2.7      4.035      4.475
REMARK  0 active torsions:
REMARK  status: ('A' for Active; 'I' for Inactive)
ROOT
HETATM    1 BR   LIG     1      18.299  36.740  20.221  1.00  0.00    -0.057 Br
HETATM    2  C   LIG     1      16.707  36.082  21.099  1.00  0.00     0.249 C 
HETATM    3 CL   LIG     1      15.761  35.104  19.954  1.00  0.00    -0.096 Cl
HETATM    4 CL   LIG     1      17.170  35.081  22.493  1.00  0.00    -0.096 Cl
ENDROOT
TORSDOF 0
ENDMDL
MODEL 19
REMARK VINA RESULT:      -2.6      2.395      3.374
REMARK  0 active torsions:
REMARK  status: ('A' for Active; 'I' for Inactive)
ROOT
HETATM    1 BR   LIG     1      16.227  37.504  22.847  1.00  0.00    -0.057 Br
HETATM    2  C   LIG     1      16.933  35.718  22.624  1.00  0.00     0.249 C 
HETATM    3 CL   LIG     1      17.220  34.992  24.222  1.00  0.00    -0.096 Cl
HETATM    4 CL   LIG     1      15.764  34.727  21.724  1.00  0.00    -0.096 Cl
ENDROOT
TORSDOF 0
ENDMDL
MODEL 20
REMARK VINA RESULT:      -2.6      4.217      4.529
REMARK  0 active torsions:
REMARK  status: ('A' for Active; 'I' for Inactive)
ROOT
HETATM    1 BR   LIG     1      15.826  37.775  22.794  1.00  0.00    -0.057 Br
HETATM    2  C   LIG     1      17.567  37.565  21.981  1.00  0.00     0.249 C 
HETATM    3 CL   LIG     1      17.499  36.274  20.761  1.00  0.00    -0.096 Cl
HETATM    4 CL   LIG     1      18.046  39.090  21.204  1.00  0.00    -0.096 Cl
ENDROOT
TORSDOF 0
ENDMDL
