REMARK  0 active torsions:
REMARK  status: ('A' for Active; 'I' for Inactive)
ROOT
HETATM    1  C   LIG     1       1.180  -0.218   0.479  1.00  0.00     0.021 C 
HETATM    2  C   LIG     1       0.094   0.446  -0.364  1.00  0.00     0.049 C 
HETATM    3 BR   LIG     1      -0.157   2.281   0.216  1.00  0.00    -0.092 Br
HETATM    4  C   LIG     1      -1.227  -0.314  -0.258  1.00  0.00     0.021 C 
ENDROOT
TORSDOF 0
