REMARK  0 active torsions:
REMARK  status: ('A' for Active; 'I' for Inactive)
ROOT
HETATM    1  C   LIG     1      -0.004   0.000   0.165  1.00  0.00     0.201 C 
HETATM    2 BR   LIG     1      -1.274  -1.291  -0.512  1.00  0.00    -0.067 Br
HETATM    3 BR   LIG     1      -0.462   1.760  -0.492  1.00  0.00    -0.067 Br
HETATM    4 BR   LIG     1       1.773  -0.470  -0.434  1.00  0.00    -0.067 Br
ENDROOT
TORSDOF 0
