REMARK  0 active torsions:
REMARK  status: ('A' for Active; 'I' for Inactive)
ROOT
HETATM    1  C   LIG     1       1.238  -0.360  -0.030  1.00  0.00     0.026 C 
HETATM    2  C   LIG     1       0.016   0.522  -0.277  1.00  0.00     0.074 C 
HETATM    3 CL   LIG     1       0.197   2.063   0.606  1.00  0.00    -0.126 Cl
HETATM    4  C   LIG     1      -1.267  -0.178   0.165  1.00  0.00     0.026 C 
ENDROOT
TORSDOF 0
