MODEL 1
REMARK VINA RESULT:      -3.3      0.000      0.000
REMARK  0 active torsions:
REMARK  status: ('A' for Active; 'I' for Inactive)
ROOT
HETATM    1  C   LIG     1      17.201  35.053  24.052  1.00  0.00     0.021 C 
HETATM    2  C   LIG     1      17.314  35.638  25.458  1.00  0.00     0.049 C 
HETATM    3 BR   LIG     1      17.807  37.512  25.352  1.00  0.00    -0.092 Br
HETATM    4  C   LIG     1      18.348  34.878  26.288  1.00  0.00     0.021 C 
ENDROOT
TORSDOF 0
ENDMDL
MODEL 2
REMARK VINA RESULT:      -3.1      5.635      6.201
REMARK  0 active torsions:
REMARK  status: ('A' for Active; 'I' for Inactive)
ROOT
HETATM    1  C   LIG     1      20.419  38.819  19.438  1.00  0.00     0.021 C 
HETATM    2  C   LIG     1      18.994  38.365  19.744  1.00  0.00     0.049 C 
HETATM    3 BR   LIG     1      18.457  39.018  21.491  1.00  0.00    -0.092 Br
HETATM    4  C   LIG     1      18.880  36.842  19.705  1.00  0.00     0.021 C 
ENDROOT
TORSDOF 0
ENDMDL
MODEL 3
REMARK VINA RESULT:      -3.1      1.802      2.499
REMARK  0 active torsions:
REMARK  status: ('A' for Active; 'I' for Inactive)
ROOT
HETATM    1  C   LIG     1      18.021  37.622  25.027  1.00  0.00     0.021 C 
HETATM    2  C   LIG     1      17.244  36.309  25.051  1.00  0.00     0.049 C 
HETATM    3 BR   LIG     1      18.130  35.042  26.224  1.00  0.00    -0.092 Br
HETATM    4  C   LIG     1      17.122  35.716  23.648  1.00  0.00     0.021 C 
ENDROOT
TORSDOF 0
ENDMDL
MODEL 4
REMARK VINA RESULT:      -3.0      5.830      6.445
REMARK  0 active torsions:
REMARK  status: ('A' for Active; 'I' for Inactive)
ROOT
HETATM    1  C   LIG     1      18.746  39.278  21.353  1.00  0.00     0.021 C 
HETATM    2  C   LIG     1      18.925  38.691  19.956  1.00  0.00     0.049 C 
HETATM    3 BR   LIG     1      18.469  36.804  19.974  1.00  0.00    -0.092 Br
HETATM    4  C   LIG     1      20.360  38.870  19.463  1.00  0.00     0.021 C 
ENDROOT
TORSDOF 0
ENDMDL
MODEL 5
REMARK VINA RESULT:      -3.0      5.875      6.656
REMARK  0 active torsions:
REMARK  status: ('A' for Active; 'I' for Inactive)
ROOT
HETATM    1  C   LIG     1      19.053  36.877  19.549  1.00  0.00     0.021 C 
HETATM    2  C   LIG     1      19.451  38.350  19.567  1.00  0.00     0.049 C 
HETATM    3 BR   LIG     1      18.663  39.224  21.110  1.00  0.00    -0.092 Br
HETATM    4  C   LIG     1      19.004  39.057  18.289  1.00  0.00     0.021 C 
ENDROOT
TORSDOF 0
ENDMDL
MODEL 6
REMARK VINA RESULT:      -2.9     12.607     12.794
REMARK  0 active torsions:
REMARK  status: ('A' for Active; 'I' for Inactive)
ROOT
HETATM    1  C   LIG     1      16.418  43.748  34.789  1.00  0.00     0.021 C 
HETATM    2  C   LIG     1      16.672  45.161  34.271  1.00  0.00     0.049 C 
HETATM    3 BR   LIG     1      15.176  45.739  33.179  1.00  0.00    -0.092 Br
HETATM    4  C   LIG     1      17.962  45.225  33.455  1.00  0.00     0.021 C 
ENDROOT
TORSDOF 0
ENDMDL
MODEL 7
REMARK VINA RESULT:      -2.9     12.784     12.966
REMARK  0 active torsions:
REMARK  status: ('A' for Active; 'I' for Inactive)
ROOT
HETATM    1  C   LIG     1      17.665  45.689  33.162  1.00  0.00     0.021 C 
HETATM    2  C   LIG     1      16.356  45.560  33.937  1.00  0.00     0.049 C 
HETATM    3 BR   LIG     1      16.291  43.840  34.834  1.00  0.00    -0.092 Br
HETATM    4  C   LIG     1      15.150  45.705  33.010  1.00  0.00     0.021 C 
ENDROOT
TORSDOF 0
ENDMDL
MODEL 8
REMARK VINA RESULT:      -2.8      2.548      3.030
REMARK  0 active torsions:
REMARK  status: ('A' for Active; 'I' for Inactive)
ROOT
HETATM    1  C   LIG     1      17.391  37.765  21.876  1.00  0.00     0.021 C 
HETATM    2  C   LIG     1      16.657  36.910  22.905  1.00  0.00     0.049 C 
HETATM    3 BR   LIG     1      17.201  37.426  24.695  1.00  0.00    -0.092 Br
HETATM    4  C   LIG     1      16.939  35.424  22.688  1.00  0.00     0.021 C 
ENDROOT
TORSDOF 0
ENDMDL
MODEL 9
REMARK VINA RESULT:      -2.8      3.264      3.957
REMARK  0 active torsions:
REMARK  status: ('A' for Active; 'I' for Inactive)
ROOT
HETATM    1  C   LIG     1      18.196  36.596  20.333  1.00  0.00     0.021 C 
HETATM    2  C   LIG     1      17.049  36.557  21.340  1.00  0.00     0.049 C 
HETATM    3 BR   LIG     1      17.195  38.060  22.560  1.00  0.00    -0.092 Br
HETATM    4  C   LIG     1      17.054  35.249  22.130  1.00  0.00     0.021 C 
ENDROOT
TORSDOF 0
ENDMDL
MODEL 10
REMARK VINA RESULT:      -2.8      2.253      2.570
REMARK  0 active torsions:
REMARK  status: ('A' for Active; 'I' for Inactive)
ROOT
HETATM    1  C   LIG     1      17.241  35.898  24.350  1.00  0.00     0.021 C 
HETATM    2  C   LIG     1      16.779  37.352  24.281  1.00  0.00     0.049 C 
HETATM    3 BR   LIG     1      17.269  38.116  22.566  1.00  0.00    -0.092 Br
HETATM    4  C   LIG     1      17.393  38.179  25.409  1.00  0.00     0.021 C 
ENDROOT
TORSDOF 0
ENDMDL
MODEL 11
REMARK VINA RESULT:      -2.8      3.072      3.801
REMARK  0 active torsions:
REMARK  status: ('A' for Active; 'I' for Inactive)
ROOT
HETATM    1  C   LIG     1      17.136  37.409  24.464  1.00  0.00     0.021 C 
HETATM    2  C   LIG     1      16.658  37.258  23.022  1.00  0.00     0.049 C 
HETATM    3 BR   LIG     1      16.860  35.414  22.453  1.00  0.00    -0.092 Br
HETATM    4  C   LIG     1      17.440  38.176  22.084  1.00  0.00     0.021 C 
ENDROOT
TORSDOF 0
ENDMDL
MODEL 12
REMARK VINA RESULT:      -2.8      4.795      4.952
REMARK  0 active torsions:
REMARK  status: ('A' for Active; 'I' for Inactive)
ROOT
HETATM    1  C   LIG     1      16.874  38.941  22.391  1.00  0.00     0.021 C 
HETATM    2  C   LIG     1      18.025  38.152  21.771  1.00  0.00     0.049 C 
HETATM    3 BR   LIG     1      18.938  39.248  20.455  1.00  0.00    -0.092 Br
HETATM    4  C   LIG     1      17.522  36.868  21.113  1.00  0.00     0.021 C 
ENDROOT
TORSDOF 0
ENDMDL
MODEL 13
REMARK VINA RESULT:      -2.8      2.486      3.046
REMARK  0 active torsions:
REMARK  status: ('A' for Active; 'I' for Inactive)
ROOT
HETATM    1  C   LIG     1      16.898  35.540  22.764  1.00  0.00     0.021 C 
HETATM    2  C   LIG     1      16.991  37.018  23.135  1.00  0.00     0.049 C 
HETATM    3 BR   LIG     1      17.400  37.196  25.024  1.00  0.00    -0.092 Br
HETATM    4  C   LIG     1      15.686  37.747  22.818  1.00  0.00     0.021 C 
ENDROOT
TORSDOF 0
ENDMDL
MODEL 14
REMARK VINA RESULT:      -2.7      3.342      4.397
REMARK  0 active torsions:
REMARK  status: ('A' for Active; 'I' for Inactive)
ROOT
HETATM    1  C   LIG     1      16.975  35.162  22.968  1.00  0.00     0.021 C 
HETATM    2  C   LIG     1      16.613  35.214  21.486  1.00  0.00     0.049 C 
HETATM    3 BR   LIG     1      17.771  36.475  20.572  1.00  0.00    -0.092 Br
HETATM    4  C   LIG     1      15.153  35.617  21.289  1.00  0.00     0.021 C 
ENDROOT
TORSDOF 0
ENDMDL
MODEL 15
REMARK VINA RESULT:      -2.7      4.289      4.566
REMARK  0 active torsions:
REMARK  status: ('A' for Active; 'I' for Inactive)
ROOT
HETATM    1  C   LIG     1      17.925  36.465  20.406  1.00  0.00     0.021 C 
HETATM    2  C   LIG     1      17.078  36.368  21.672  1.00  0.00     0.049 C 
HETATM    3 BR   LIG     1      15.348  35.596  21.247  1.00  0.00    -0.092 Br
HETATM    4  C   LIG     1      16.887  37.741  22.314  1.00  0.00     0.021 C 
ENDROOT
TORSDOF 0
ENDMDL
MODEL 16
REMARK VINA RESULT:      -2.6      8.712      8.984
REMARK  0 active torsions:
REMARK  status: ('A' for Active; 'I' for Inactive)
ROOT
HETATM    1  C   LIG     1      13.572  31.864  17.022  1.00  0.00     0.021 C 
HETATM    2  C   LIG     1      14.923  32.477  17.386  1.00  0.00     0.049 C 
HETATM    3 BR   LIG     1      15.219  32.325  19.298  1.00  0.00    -0.092 Br
HETATM    4  C   LIG     1      14.991  33.945  16.968  1.00  0.00     0.021 C 
ENDROOT
TORSDOF 0
ENDMDL
MODEL 17
REMARK VINA RESULT:      -2.6     11.665     12.292
REMARK  0 active torsions:
REMARK  status: ('A' for Active; 'I' for Inactive)
ROOT
HETATM    1  C   LIG     1      15.889  31.561  14.715  1.00  0.00     0.021 C 
HETATM    2  C   LIG     1      14.740  30.622  14.357  1.00  0.00     0.049 C 
HETATM    3 BR   LIG     1      13.429  30.614  15.788  1.00  0.00    -0.092 Br
HETATM    4  C   LIG     1      15.246  29.201  14.113  1.00  0.00     0.021 C 
ENDROOT
TORSDOF 0
ENDMDL
MODEL 18
REMARK VINA RESULT:      -2.6     11.928     12.373
REMARK  0 active torsions:
REMARK  status: ('A' for Active; 'I' for Inactive)
ROOT
HETATM    1  C   LIG     1      15.288  29.089  14.046  1.00  0.00     0.021 C 
HETATM    2  C   LIG     1      14.613  30.445  14.242  1.00  0.00     0.049 C 
HETATM    3 BR   LIG     1      15.941  31.775  14.728  1.00  0.00    -0.092 Br
HETATM    4  C   LIG     1      13.536  30.372  15.324  1.00  0.00     0.021 C 
ENDROOT
TORSDOF 0
ENDMDL
MODEL 19
REMARK VINA RESULT:      -2.6      9.306      9.958
REMARK  0 active torsions:
REMARK  status: ('A' for Active; 'I' for Inactive)
ROOT
HETATM    1  C   LIG     1      14.620  31.861  18.557  1.00  0.00     0.021 C 
HETATM    2  C   LIG     1      14.188  32.309  17.163  1.00  0.00     0.049 C 
HETATM    3 BR   LIG     1      13.252  30.863  16.269  1.00  0.00    -0.092 Br
HETATM    4  C   LIG     1      15.391  32.740  16.326  1.00  0.00     0.021 C 
ENDROOT
TORSDOF 0
ENDMDL
MODEL 20
REMARK VINA RESULT:      -2.6      3.112      3.715
REMARK  0 active torsions:
REMARK  status: ('A' for Active; 'I' for Inactive)
ROOT
HETATM    1  C   LIG     1      16.736  37.601  24.311  1.00  0.00     0.021 C 
HETATM    2  C   LIG     1      17.164  37.248  22.889  1.00  0.00     0.049 C 
HETATM    3 BR   LIG     1      17.800  38.840  21.980  1.00  0.00    -0.092 Br
HETATM    4  C   LIG     1      16.007  36.633  22.103  1.00  0.00     0.021 C 
ENDROOT
TORSDOF 0
ENDMDL
