MODEL 1
REMARK VINA RESULT:      -3.4      0.000      0.000
REMARK  0 active torsions:
REMARK  status: ('A' for Active; 'I' for Inactive)
ROOT
HETATM    1  C   LIG     1      18.323  34.876  26.320  1.00  0.00     0.026 C 
HETATM    2  C   LIG     1      17.429  35.810  25.508  1.00  0.00     0.074 C 
HETATM    3 CL   LIG     1      17.193  35.144  23.869  1.00  0.00    -0.126 Cl
HETATM    4  C   LIG     1      18.035  37.208  25.414  1.00  0.00     0.026 C 
ENDROOT
TORSDOF 0
ENDMDL
MODEL 2
REMARK VINA RESULT:      -3.2      1.632      2.286
REMARK  0 active torsions:
REMARK  status: ('A' for Active; 'I' for Inactive)
ROOT
HETATM    1  C   LIG     1      17.199  35.201  24.074  1.00  0.00     0.026 C 
HETATM    2  C   LIG     1      17.432  35.794  25.462  1.00  0.00     0.074 C 
HETATM    3 CL   LIG     1      18.200  37.398  25.310  1.00  0.00    -0.126 Cl
HETATM    4  C   LIG     1      18.310  34.880  26.312  1.00  0.00     0.026 C 
ENDROOT
TORSDOF 0
ENDMDL
MODEL 3
REMARK VINA RESULT:      -3.2      1.650      2.336
REMARK  0 active torsions:
REMARK  status: ('A' for Active; 'I' for Inactive)
ROOT
HETATM    1  C   LIG     1      17.839  37.211  25.294  1.00  0.00     0.026 C 
HETATM    2  C   LIG     1      17.344  35.771  25.411  1.00  0.00     0.074 C 
HETATM    3 CL   LIG     1      18.497  34.814  26.381  1.00  0.00    -0.126 Cl
HETATM    4  C   LIG     1      17.175  35.133  24.033  1.00  0.00     0.026 C 
ENDROOT
TORSDOF 0
ENDMDL
MODEL 4
REMARK VINA RESULT:      -3.0      5.514      6.166
REMARK  0 active torsions:
REMARK  status: ('A' for Active; 'I' for Inactive)
ROOT
HETATM    1  C   LIG     1      18.689  39.073  21.195  1.00  0.00     0.026 C 
HETATM    2  C   LIG     1      19.007  38.497  19.817  1.00  0.00     0.074 C 
HETATM    3 CL   LIG     1      18.797  36.725  19.841  1.00  0.00    -0.126 Cl
HETATM    4  C   LIG     1      20.432  38.842  19.392  1.00  0.00     0.026 C 
ENDROOT
TORSDOF 0
ENDMDL
MODEL 5
REMARK VINA RESULT:      -3.0      5.948      6.461
REMARK  0 active torsions:
REMARK  status: ('A' for Active; 'I' for Inactive)
ROOT
HETATM    1  C   LIG     1      20.431  38.807  19.460  1.00  0.00     0.026 C 
HETATM    2  C   LIG     1      18.983  38.375  19.682  1.00  0.00     0.074 C 
HETATM    3 CL   LIG     1      18.376  39.066  21.212  1.00  0.00    -0.126 Cl
HETATM    4  C   LIG     1      18.861  36.854  19.719  1.00  0.00     0.026 C 
ENDROOT
TORSDOF 0
ENDMDL
MODEL 6
REMARK VINA RESULT:      -3.0      5.821      6.171
REMARK  0 active torsions:
REMARK  status: ('A' for Active; 'I' for Inactive)
ROOT
HETATM    1  C   LIG     1      18.728  36.902  19.812  1.00  0.00     0.026 C 
HETATM    2  C   LIG     1      18.917  38.415  19.898  1.00  0.00     0.074 C 
HETATM    3 CL   LIG     1      20.579  38.844  19.408  1.00  0.00    -0.126 Cl
HETATM    4  C   LIG     1      18.649  38.924  21.313  1.00  0.00     0.026 C 
ENDROOT
TORSDOF 0
ENDMDL
MODEL 7
REMARK VINA RESULT:      -3.0      6.411      6.807
REMARK  0 active torsions:
REMARK  status: ('A' for Active; 'I' for Inactive)
ROOT
HETATM    1  C   LIG     1      18.621  39.087  20.698  1.00  0.00     0.026 C 
HETATM    2  C   LIG     1      19.410  38.443  19.560  1.00  0.00     0.074 C 
HETATM    3 CL   LIG     1      18.916  39.162  18.002  1.00  0.00    -0.126 Cl
HETATM    4  C   LIG     1      19.191  36.933  19.524  1.00  0.00     0.026 C 
ENDROOT
TORSDOF 0
ENDMDL
MODEL 8
REMARK VINA RESULT:      -2.8      2.328      2.831
REMARK  0 active torsions:
REMARK  status: ('A' for Active; 'I' for Inactive)
ROOT
HETATM    1  C   LIG     1      17.138  37.501  24.520  1.00  0.00     0.026 C 
HETATM    2  C   LIG     1      16.686  36.999  23.150  1.00  0.00     0.074 C 
HETATM    3 CL   LIG     1      17.036  35.255  23.002  1.00  0.00    -0.126 Cl
HETATM    4  C   LIG     1      17.384  37.762  22.026  1.00  0.00     0.026 C 
ENDROOT
TORSDOF 0
ENDMDL
MODEL 9
REMARK VINA RESULT:      -2.8      3.497      3.720
REMARK  0 active torsions:
REMARK  status: ('A' for Active; 'I' for Inactive)
ROOT
HETATM    1  C   LIG     1      16.966  35.303  22.615  1.00  0.00     0.026 C 
HETATM    2  C   LIG     1      16.826  36.529  21.714  1.00  0.00     0.074 C 
HETATM    3 CL   LIG     1      18.022  36.446  20.392  1.00  0.00    -0.126 Cl
HETATM    4  C   LIG     1      17.022  37.820  22.507  1.00  0.00     0.026 C 
ENDROOT
TORSDOF 0
ENDMDL
MODEL 10
REMARK VINA RESULT:      -2.7      3.344      3.823
REMARK  0 active torsions:
REMARK  status: ('A' for Active; 'I' for Inactive)
ROOT
HETATM    1  C   LIG     1      15.724  37.783  22.874  1.00  0.00     0.026 C 
HETATM    2  C   LIG     1      17.195  37.819  23.280  1.00  0.00     0.074 C 
HETATM    3 CL   LIG     1      17.332  38.234  25.011  1.00  0.00    -0.126 Cl
HETATM    4  C   LIG     1      17.973  38.833  22.444  1.00  0.00     0.026 C 
ENDROOT
TORSDOF 0
ENDMDL
MODEL 11
REMARK VINA RESULT:      -2.7      4.590      4.897
REMARK  0 active torsions:
REMARK  status: ('A' for Active; 'I' for Inactive)
ROOT
HETATM    1  C   LIG     1      17.631  36.973  21.083  1.00  0.00     0.026 C 
HETATM    2  C   LIG     1      18.021  38.279  21.772  1.00  0.00     0.074 C 
HETATM    3 CL   LIG     1      16.581  39.016  22.527  1.00  0.00    -0.126 Cl
HETATM    4  C   LIG     1      18.643  39.260  20.781  1.00  0.00     0.026 C 
ENDROOT
TORSDOF 0
ENDMDL
MODEL 12
REMARK VINA RESULT:      -2.7      3.658      4.332
REMARK  0 active torsions:
REMARK  status: ('A' for Active; 'I' for Inactive)
ROOT
HETATM    1  C   LIG     1      17.522  38.350  23.320  1.00  0.00     0.026 C 
HETATM    2  C   LIG     1      17.470  38.440  21.796  1.00  0.00     0.074 C 
HETATM    3 CL   LIG     1      17.584  36.803  21.092  1.00  0.00    -0.126 Cl
HETATM    4  C   LIG     1      18.601  39.313  21.257  1.00  0.00     0.026 C 
ENDROOT
TORSDOF 0
ENDMDL
MODEL 13
REMARK VINA RESULT:      -2.7      3.061      3.367
REMARK  0 active torsions:
REMARK  status: ('A' for Active; 'I' for Inactive)
ROOT
HETATM    1  C   LIG     1      16.845  36.575  22.878  1.00  0.00     0.026 C 
HETATM    2  C   LIG     1      16.932  38.012  23.387  1.00  0.00     0.074 C 
HETATM    3 CL   LIG     1      18.097  38.933  22.396  1.00  0.00    -0.126 Cl
HETATM    4  C   LIG     1      17.355  38.053  24.853  1.00  0.00     0.026 C 
ENDROOT
TORSDOF 0
ENDMDL
MODEL 14
REMARK VINA RESULT:      -2.7      3.455      4.107
REMARK  0 active torsions:
REMARK  status: ('A' for Active; 'I' for Inactive)
ROOT
HETATM    1  C   LIG     1      17.988  38.958  21.980  1.00  0.00     0.026 C 
HETATM    2  C   LIG     1      17.174  38.184  23.014  1.00  0.00     0.074 C 
HETATM    3 CL   LIG     1      18.076  38.100  24.552  1.00  0.00    -0.126 Cl
HETATM    4  C   LIG     1      16.860  36.772  22.523  1.00  0.00     0.026 C 
ENDROOT
TORSDOF 0
ENDMDL
MODEL 15
REMARK VINA RESULT:      -2.7      4.658      4.962
REMARK  0 active torsions:
REMARK  status: ('A' for Active; 'I' for Inactive)
ROOT
HETATM    1  C   LIG     1      16.412  35.493  20.542  1.00  0.00     0.026 C 
HETATM    2  C   LIG     1      17.611  36.291  21.051  1.00  0.00     0.074 C 
HETATM    3 CL   LIG     1      17.043  37.696  21.994  1.00  0.00    -0.126 Cl
HETATM    4  C   LIG     1      18.487  36.767  19.894  1.00  0.00     0.026 C 
ENDROOT
TORSDOF 0
ENDMDL
MODEL 16
REMARK VINA RESULT:      -2.6      2.874      3.144
REMARK  0 active torsions:
REMARK  status: ('A' for Active; 'I' for Inactive)
ROOT
HETATM    1  C   LIG     1      16.845  35.469  22.584  1.00  0.00     0.026 C 
HETATM    2  C   LIG     1      16.973  36.882  23.149  1.00  0.00     0.074 C 
HETATM    3 CL   LIG     1      17.195  36.804  24.919  1.00  0.00    -0.126 Cl
HETATM    4  C   LIG     1      15.741  37.721  22.821  1.00  0.00     0.026 C 
ENDROOT
TORSDOF 0
ENDMDL
MODEL 17
REMARK VINA RESULT:      -2.6     12.373     12.743
REMARK  0 active torsions:
REMARK  status: ('A' for Active; 'I' for Inactive)
ROOT
HETATM    1  C   LIG     1      15.680  31.357  14.406  1.00  0.00     0.026 C 
HETATM    2  C   LIG     1      14.627  30.306  14.064  1.00  0.00     0.074 C 
HETATM    3 CL   LIG     1      13.349  30.305  15.311  1.00  0.00    -0.126 Cl
HETATM    4  C   LIG     1      15.248  28.915  13.961  1.00  0.00     0.026 C 
ENDROOT
TORSDOF 0
ENDMDL
MODEL 18
REMARK VINA RESULT:      -2.6     12.538     12.913
REMARK  0 active torsions:
REMARK  status: ('A' for Active; 'I' for Inactive)
ROOT
HETATM    1  C   LIG     1      13.816  30.366  15.113  1.00  0.00     0.026 C 
HETATM    2  C   LIG     1      15.192  30.061  14.523  1.00  0.00     0.074 C 
HETATM    3 CL   LIG     1      15.643  31.334  13.356  1.00  0.00    -0.126 Cl
HETATM    4  C   LIG     1      15.205  28.700  13.831  1.00  0.00     0.026 C 
ENDROOT
TORSDOF 0
ENDMDL
MODEL 19
REMARK VINA RESULT:      -2.6     12.313     12.599
REMARK  0 active torsions:
REMARK  status: ('A' for Active; 'I' for Inactive)
ROOT
HETATM    1  C   LIG     1      13.534  30.312  15.253  1.00  0.00     0.026 C 
HETATM    2  C   LIG     1      14.598  30.334  14.158  1.00  0.00     0.074 C 
HETATM    3 CL   LIG     1      15.327  28.713  13.994  1.00  0.00    -0.126 Cl
HETATM    4  C   LIG     1      15.686  31.360  14.468  1.00  0.00     0.026 C 
ENDROOT
TORSDOF 0
ENDMDL
MODEL 20
REMARK VINA RESULT:      -2.6      9.424      9.869
REMARK  0 active torsions:
REMARK  status: ('A' for Active; 'I' for Inactive)
ROOT
HETATM    1  C   LIG     1      15.252  32.709  16.406  1.00  0.00     0.026 C 
HETATM    2  C   LIG     1      14.070  32.151  17.196  1.00  0.00     0.074 C 
HETATM    3 CL   LIG     1      14.600  31.714  18.844  1.00  0.00    -0.126 Cl
HETATM    4  C   LIG     1      13.474  30.927  16.504  1.00  0.00     0.026 C 
ENDROOT
TORSDOF 0
ENDMDL
