MODEL 1
REMARK VINA RESULT:      -3.3      0.000      0.000
REMARK  0 active torsions:
REMARK  status: ('A' for Active; 'I' for Inactive)
ROOT
HETATM    1  C   LIG     1      18.305  34.916  26.236  1.00  0.00     0.021 C 
HETATM    2  C   LIG     1      17.241  35.592  25.376  1.00  0.00     0.045 C 
HETATM    3  I   LIG     1      17.628  37.695  25.261  1.00  0.00    -0.086 I 
HETATM    4  C   LIG     1      17.207  34.995  23.971  1.00  0.00     0.021 C 
ENDROOT
TORSDOF 0
ENDMDL
MODEL 2
REMARK VINA RESULT:      -3.1      5.612      6.158
REMARK  0 active torsions:
REMARK  status: ('A' for Active; 'I' for Inactive)
ROOT
HETATM    1  C   LIG     1      18.977  36.789  19.620  1.00  0.00     0.021 C 
HETATM    2  C   LIG     1      19.008  38.313  19.692  1.00  0.00     0.045 C 
HETATM    3  I   LIG     1      18.328  38.963  21.616  1.00  0.00    -0.086 I 
HETATM    4  C   LIG     1      20.414  38.849  19.433  1.00  0.00     0.021 C 
ENDROOT
TORSDOF 0
ENDMDL
MODEL 3
REMARK VINA RESULT:      -3.1      2.046      2.719
REMARK  0 active torsions:
REMARK  status: ('A' for Active; 'I' for Inactive)
ROOT
HETATM    1  C   LIG     1      17.026  36.054  23.327  1.00  0.00     0.021 C 
HETATM    2  C   LIG     1      17.123  36.666  24.723  1.00  0.00     0.045 C 
HETATM    3  I   LIG     1      17.946  35.235  26.086  1.00  0.00    -0.086 I 
HETATM    4  C   LIG     1      17.984  37.926  24.714  1.00  0.00     0.021 C 
ENDROOT
TORSDOF 0
ENDMDL
MODEL 4
REMARK VINA RESULT:      -3.0      1.226      2.014
REMARK  0 active torsions:
REMARK  status: ('A' for Active; 'I' for Inactive)
ROOT
HETATM    1  C   LIG     1      17.163  34.823  25.654  1.00  0.00     0.021 C 
HETATM    2  C   LIG     1      18.111  36.015  25.546  1.00  0.00     0.045 C 
HETATM    3  I   LIG     1      17.149  37.613  24.494  1.00  0.00    -0.086 I 
HETATM    4  C   LIG     1      18.551  36.496  26.926  1.00  0.00     0.021 C 
ENDROOT
TORSDOF 0
ENDMDL
MODEL 5
REMARK VINA RESULT:      -2.9      2.719      3.476
REMARK  0 active torsions:
REMARK  status: ('A' for Active; 'I' for Inactive)
ROOT
HETATM    1  C   LIG     1      16.993  35.280  22.755  1.00  0.00     0.021 C 
HETATM    2  C   LIG     1      16.779  36.424  21.766  1.00  0.00     0.045 C 
HETATM    3  I   LIG     1      17.025  38.301  22.765  1.00  0.00    -0.086 I 
HETATM    4  C   LIG     1      17.754  36.329  20.595  1.00  0.00     0.021 C 
ENDROOT
TORSDOF 0
ENDMDL
MODEL 6
REMARK VINA RESULT:      -2.9      3.096      3.653
REMARK  0 active torsions:
REMARK  status: ('A' for Active; 'I' for Inactive)
ROOT
HETATM    1  C   LIG     1      17.790  38.853  22.288  1.00  0.00     0.021 C 
HETATM    2  C   LIG     1      17.083  37.682  22.966  1.00  0.00     0.045 C 
HETATM    3  I   LIG     1      17.517  37.687  25.062  1.00  0.00    -0.086 I 
HETATM    4  C   LIG     1      15.573  37.751  22.751  1.00  0.00     0.021 C 
ENDROOT
TORSDOF 0
ENDMDL
MODEL 7
REMARK VINA RESULT:      -2.8      3.406      4.048
REMARK  0 active torsions:
REMARK  status: ('A' for Active; 'I' for Inactive)
ROOT
HETATM    1  C   LIG     1      17.546  38.476  22.012  1.00  0.00     0.021 C 
HETATM    2  C   LIG     1      16.573  37.541  22.726  1.00  0.00     0.045 C 
HETATM    3  I   LIG     1      16.673  35.588  21.855  1.00  0.00    -0.086 I 
HETATM    4  C   LIG     1      16.883  37.457  24.218  1.00  0.00     0.021 C 
ENDROOT
TORSDOF 0
ENDMDL
MODEL 8
REMARK VINA RESULT:      -2.8      2.291      2.487
REMARK  0 active torsions:
REMARK  status: ('A' for Active; 'I' for Inactive)
ROOT
HETATM    1  C   LIG     1      17.344  36.963  24.829  1.00  0.00     0.021 C 
HETATM    2  C   LIG     1      16.717  36.967  23.437  1.00  0.00     0.045 C 
HETATM    3  I   LIG     1      17.542  38.564  22.274  1.00  0.00    -0.086 I 
HETATM    4  C   LIG     1      16.948  35.637  22.725  1.00  0.00     0.021 C 
ENDROOT
TORSDOF 0
ENDMDL
MODEL 9
REMARK VINA RESULT:      -2.8      4.514      4.842
REMARK  0 active torsions:
REMARK  status: ('A' for Active; 'I' for Inactive)
ROOT
HETATM    1  C   LIG     1      17.093  37.663  21.974  1.00  0.00     0.021 C 
HETATM    2  C   LIG     1      17.584  36.392  21.286  1.00  0.00     0.045 C 
HETATM    3  I   LIG     1      15.920  35.122  20.835  1.00  0.00    -0.086 I 
HETATM    4  C   LIG     1      18.348  36.718  20.005  1.00  0.00     0.021 C 
ENDROOT
TORSDOF 0
ENDMDL
MODEL 10
REMARK VINA RESULT:      -2.8      3.728      3.985
REMARK  0 active torsions:
REMARK  status: ('A' for Active; 'I' for Inactive)
ROOT
HETATM    1  C   LIG     1      17.081  36.086  21.503  1.00  0.00     0.021 C 
HETATM    2  C   LIG     1      17.132  37.282  22.450  1.00  0.00     0.045 C 
HETATM    3  I   LIG     1      18.248  38.873  21.549  1.00  0.00    -0.086 I 
HETATM    4  C   LIG     1      15.728  37.770  22.799  1.00  0.00     0.021 C 
ENDROOT
TORSDOF 0
ENDMDL
MODEL 11
REMARK VINA RESULT:      -2.7      6.954      7.539
REMARK  0 active torsions:
REMARK  status: ('A' for Active; 'I' for Inactive)
ROOT
HETATM    1  C   LIG     1      14.799  31.128  20.132  1.00  0.00     0.021 C 
HETATM    2  C   LIG     1      15.579  32.238  19.433  1.00  0.00     0.045 C 
HETATM    3  I   LIG     1      14.784  32.559  17.471  1.00  0.00    -0.086 I 
HETATM    4  C   LIG     1      15.523  33.538  20.232  1.00  0.00     0.021 C 
ENDROOT
TORSDOF 0
ENDMDL
MODEL 12
REMARK VINA RESULT:      -2.7      8.575      8.879
REMARK  0 active torsions:
REMARK  status: ('A' for Active; 'I' for Inactive)
ROOT
HETATM    1  C   LIG     1      15.034  33.904  17.112  1.00  0.00     0.021 C 
HETATM    2  C   LIG     1      14.892  32.419  17.433  1.00  0.00     0.045 C 
HETATM    3  I   LIG     1      15.188  32.097  19.529  1.00  0.00    -0.086 I 
HETATM    4  C   LIG     1      13.519  31.894  17.018  1.00  0.00     0.021 C 
ENDROOT
TORSDOF 0
ENDMDL
MODEL 13
REMARK VINA RESULT:      -2.6     11.461     11.941
REMARK  0 active torsions:
REMARK  status: ('A' for Active; 'I' for Inactive)
ROOT
HETATM    1  C   LIG     1      13.660  30.576  15.626  1.00  0.00     0.021 C 
HETATM    2  C   LIG     1      14.675  30.713  14.494  1.00  0.00     0.045 C 
HETATM    3  I   LIG     1      16.166  32.154  15.026  1.00  0.00    -0.086 I 
HETATM    4  C   LIG     1      15.338  29.373  14.183  1.00  0.00     0.021 C 
ENDROOT
TORSDOF 0
ENDMDL
MODEL 14
REMARK VINA RESULT:      -2.6     11.506     12.072
REMARK  0 active torsions:
REMARK  status: ('A' for Active; 'I' for Inactive)
ROOT
HETATM    1  C   LIG     1      15.235  29.308  14.205  1.00  0.00     0.021 C 
HETATM    2  C   LIG     1      14.768  30.744  14.429  1.00  0.00     0.045 C 
HETATM    3  I   LIG     1      13.442  30.822  16.108  1.00  0.00    -0.086 I 
HETATM    4  C   LIG     1      15.953  31.678  14.661  1.00  0.00     0.021 C 
ENDROOT
TORSDOF 0
ENDMDL
MODEL 15
REMARK VINA RESULT:      -2.6     10.778     11.234
REMARK  0 active torsions:
REMARK  status: ('A' for Active; 'I' for Inactive)
ROOT
HETATM    1  C   LIG     1      15.146  30.925  14.313  1.00  0.00     0.021 C 
HETATM    2  C   LIG     1      14.516  30.809  15.698  1.00  0.00     0.045 C 
HETATM    3  I   LIG     1      14.844  32.616  16.798  1.00  0.00    -0.086 I 
HETATM    4  C   LIG     1      13.019  30.527  15.601  1.00  0.00     0.021 C 
ENDROOT
TORSDOF 0
ENDMDL
MODEL 16
REMARK VINA RESULT:      -2.5     10.888     11.320
REMARK  0 active torsions:
REMARK  status: ('A' for Active; 'I' for Inactive)
ROOT
HETATM    1  C   LIG     1      12.997  31.065  16.307  1.00  0.00     0.021 C 
HETATM    2  C   LIG     1      14.509  31.082  16.099  1.00  0.00     0.045 C 
HETATM    3  I   LIG     1      14.990  30.201  14.208  1.00  0.00    -0.086 I 
HETATM    4  C   LIG     1      15.058  32.505  16.161  1.00  0.00     0.021 C 
ENDROOT
TORSDOF 0
ENDMDL
MODEL 17
REMARK VINA RESULT:      -2.5      9.178      9.820
REMARK  0 active torsions:
REMARK  status: ('A' for Active; 'I' for Inactive)
ROOT
HETATM    1  C   LIG     1      15.376  33.080  16.401  1.00  0.00     0.021 C 
HETATM    2  C   LIG     1      14.238  32.482  17.225  1.00  0.00     0.045 C 
HETATM    3  I   LIG     1      13.355  30.847  16.163  1.00  0.00    -0.086 I 
HETATM    4  C   LIG     1      14.735  32.005  18.588  1.00  0.00     0.021 C 
ENDROOT
TORSDOF 0
ENDMDL
MODEL 18
REMARK VINA RESULT:      -2.5      9.090      9.921
REMARK  0 active torsions:
REMARK  status: ('A' for Active; 'I' for Inactive)
ROOT
HETATM    1  C   LIG     1      14.510  31.885  18.337  1.00  0.00     0.021 C 
HETATM    2  C   LIG     1      14.094  32.082  16.881  1.00  0.00     0.045 C 
HETATM    3  I   LIG     1      15.828  32.400  15.667  1.00  0.00    -0.086 I 
HETATM    4  C   LIG     1      13.314  30.876  16.363  1.00  0.00     0.021 C 
ENDROOT
TORSDOF 0
ENDMDL
MODEL 19
REMARK VINA RESULT:      -2.4     12.803     13.025
REMARK  0 active torsions:
REMARK  status: ('A' for Active; 'I' for Inactive)
ROOT
HETATM    1  C   LIG     1      26.982  38.079  18.186  1.00  0.00     0.021 C 
HETATM    2  C   LIG     1      28.190  38.510  19.013  1.00  0.00     0.045 C 
HETATM    3  I   LIG     1      29.821  38.996  17.713  1.00  0.00    -0.086 I 
HETATM    4  C   LIG     1      27.855  39.712  19.893  1.00  0.00     0.021 C 
ENDROOT
TORSDOF 0
ENDMDL
MODEL 20
REMARK VINA RESULT:      -2.4     13.453     13.856
REMARK  0 active torsions:
REMARK  status: ('A' for Active; 'I' for Inactive)
ROOT
HETATM    1  C   LIG     1      21.431  34.141  12.653  1.00  0.00     0.021 C 
HETATM    2  C   LIG     1      20.104  34.021  11.908  1.00  0.00     0.045 C 
HETATM    3  I   LIG     1      20.223  32.443  10.466  1.00  0.00    -0.086 I 
HETATM    4  C   LIG     1      18.952  33.753  12.873  1.00  0.00     0.021 C 
ENDROOT
TORSDOF 0
ENDMDL
