MODEL 1
REMARK VINA RESULT:      -3.3      0.000      0.000
REMARK  0 active torsions:
REMARK  status: ('A' for Active; 'I' for Inactive)
ROOT
HETATM    1  C   LIG     1      18.291  34.871  26.309  1.00  0.00     0.043 C 
HETATM    2  C   LIG     1      17.426  35.800  25.466  1.00  0.00     0.174 C 
HETATM    3 CL   LIG     1      18.203  37.396  25.319  1.00  0.00    -0.109 Cl
HETATM    4 CL   LIG     1      17.191  35.111  23.841  1.00  0.00    -0.109 Cl
ENDROOT
TORSDOF 0
ENDMDL
MODEL 2
REMARK VINA RESULT:      -3.3      1.624      2.410
REMARK  0 active torsions:
REMARK  status: ('A' for Active; 'I' for Inactive)
ROOT
HETATM    1  C   LIG     1      17.953  37.225  25.373  1.00  0.00     0.043 C 
HETATM    2  C   LIG     1      17.392  35.811  25.458  1.00  0.00     0.174 C 
HETATM    3 CL   LIG     1      17.185  35.134  23.823  1.00  0.00    -0.109 Cl
HETATM    4 CL   LIG     1      18.497  34.768  26.387  1.00  0.00    -0.109 Cl
ENDROOT
TORSDOF 0
ENDMDL
MODEL 3
REMARK VINA RESULT:      -3.2      1.633      2.394
REMARK  0 active torsions:
REMARK  status: ('A' for Active; 'I' for Inactive)
ROOT
HETATM    1  C   LIG     1      17.154  35.197  24.089  1.00  0.00     0.043 C 
HETATM    2  C   LIG     1      17.418  35.797  25.464  1.00  0.00     0.174 C 
HETATM    3 CL   LIG     1      18.513  34.745  26.394  1.00  0.00    -0.109 Cl
HETATM    4 CL   LIG     1      18.157  37.409  25.296  1.00  0.00    -0.109 Cl
ENDROOT
TORSDOF 0
ENDMDL
MODEL 4
REMARK VINA RESULT:      -3.1      1.159      2.210
REMARK  0 active torsions:
REMARK  status: ('A' for Active; 'I' for Inactive)
ROOT
HETATM    1  C   LIG     1      18.359  36.205  26.903  1.00  0.00     0.043 C 
HETATM    2  C   LIG     1      18.092  36.485  25.430  1.00  0.00     0.174 C 
HETATM    3 CL   LIG     1      17.299  35.082  24.672  1.00  0.00    -0.109 Cl
HETATM    4 CL   LIG     1      17.042  37.913  25.259  1.00  0.00    -0.109 Cl
ENDROOT
TORSDOF 0
ENDMDL
MODEL 5
REMARK VINA RESULT:      -3.1      1.648      2.100
REMARK  0 active torsions:
REMARK  status: ('A' for Active; 'I' for Inactive)
ROOT
HETATM    1  C   LIG     1      17.238  37.928  25.356  1.00  0.00     0.043 C 
HETATM    2  C   LIG     1      18.113  36.682  25.366  1.00  0.00     0.174 C 
HETATM    3 CL   LIG     1      18.491  36.211  27.041  1.00  0.00    -0.109 Cl
HETATM    4 CL   LIG     1      17.272  35.337  24.556  1.00  0.00    -0.109 Cl
ENDROOT
TORSDOF 0
ENDMDL
MODEL 6
REMARK VINA RESULT:      -3.0      5.838      6.382
REMARK  0 active torsions:
REMARK  status: ('A' for Active; 'I' for Inactive)
ROOT
HETATM    1  C   LIG     1      20.401  38.810  19.466  1.00  0.00     0.043 C 
HETATM    2  C   LIG     1      18.955  38.492  19.822  1.00  0.00     0.174 C 
HETATM    3 CL   LIG     1      18.713  36.729  19.893  1.00  0.00    -0.109 Cl
HETATM    4 CL   LIG     1      18.542  39.203  21.402  1.00  0.00    -0.109 Cl
ENDROOT
TORSDOF 0
ENDMDL
MODEL 7
REMARK VINA RESULT:      -3.0      5.740      6.017
REMARK  0 active torsions:
REMARK  status: ('A' for Active; 'I' for Inactive)
ROOT
HETATM    1  C   LIG     1      18.725  39.063  21.379  1.00  0.00     0.043 C 
HETATM    2  C   LIG     1      18.901  38.521  19.967  1.00  0.00     0.174 C 
HETATM    3 CL   LIG     1      20.543  38.874  19.374  1.00  0.00    -0.109 Cl
HETATM    4 CL   LIG     1      18.639  36.759  19.951  1.00  0.00    -0.109 Cl
ENDROOT
TORSDOF 0
ENDMDL
MODEL 8
REMARK VINA RESULT:      -3.0      5.963      6.249
REMARK  0 active torsions:
REMARK  status: ('A' for Active; 'I' for Inactive)
ROOT
HETATM    1  C   LIG     1      18.879  36.836  19.684  1.00  0.00     0.043 C 
HETATM    2  C   LIG     1      18.956  38.357  19.666  1.00  0.00     0.174 C 
HETATM    3 CL   LIG     1      18.421  39.017  21.231  1.00  0.00    -0.109 Cl
HETATM    4 CL   LIG     1      20.628  38.881  19.351  1.00  0.00    -0.109 Cl
ENDROOT
TORSDOF 0
ENDMDL
MODEL 9
REMARK VINA RESULT:      -2.8      3.691      4.259
REMARK  0 active torsions:
REMARK  status: ('A' for Active; 'I' for Inactive)
ROOT
HETATM    1  C   LIG     1      17.543  36.268  20.800  1.00  0.00     0.043 C 
HETATM    2  C   LIG     1      16.631  35.255  21.479  1.00  0.00     0.174 C 
HETATM    3 CL   LIG     1      17.047  35.115  23.206  1.00  0.00    -0.109 Cl
HETATM    4 CL   LIG     1      14.931  35.763  21.326  1.00  0.00    -0.109 Cl
ENDROOT
TORSDOF 0
ENDMDL
MODEL 10
REMARK VINA RESULT:      -2.8      3.511      4.374
REMARK  0 active torsions:
REMARK  status: ('A' for Active; 'I' for Inactive)
ROOT
HETATM    1  C   LIG     1      17.526  36.272  20.783  1.00  0.00     0.043 C 
HETATM    2  C   LIG     1      16.519  36.262  21.925  1.00  0.00     0.174 C 
HETATM    3 CL   LIG     1      14.917  35.764  21.325  1.00  0.00    -0.109 Cl
HETATM    4 CL   LIG     1      17.045  35.130  23.195  1.00  0.00    -0.109 Cl
ENDROOT
TORSDOF 0
ENDMDL
MODEL 11
REMARK VINA RESULT:      -2.8      3.800      4.281
REMARK  0 active torsions:
REMARK  status: ('A' for Active; 'I' for Inactive)
ROOT
HETATM    1  C   LIG     1      17.305  37.826  22.304  1.00  0.00     0.043 C 
HETATM    2  C   LIG     1      17.107  36.642  21.367  1.00  0.00     0.174 C 
HETATM    3 CL   LIG     1      18.392  36.613  20.134  1.00  0.00    -0.109 Cl
HETATM    4 CL   LIG     1      17.146  35.119  22.288  1.00  0.00    -0.109 Cl
ENDROOT
TORSDOF 0
ENDMDL
MODEL 12
REMARK VINA RESULT:      -2.8     13.568     13.879
REMARK  0 active torsions:
REMARK  status: ('A' for Active; 'I' for Inactive)
ROOT
HETATM    1  C   LIG     1      23.127  35.593  13.458  1.00  0.00     0.043 C 
HETATM    2  C   LIG     1      24.316  36.463  13.074  1.00  0.00     0.174 C 
HETATM    3 CL   LIG     1      24.081  37.140  11.443  1.00  0.00    -0.109 Cl
HETATM    4 CL   LIG     1      24.502  37.796  14.240  1.00  0.00    -0.109 Cl
ENDROOT
TORSDOF 0
ENDMDL
MODEL 13
REMARK VINA RESULT:      -2.8      2.386      3.503
REMARK  0 active torsions:
REMARK  status: ('A' for Active; 'I' for Inactive)
ROOT
HETATM    1  C   LIG     1      17.301  38.248  22.689  1.00  0.00     0.043 C 
HETATM    2  C   LIG     1      16.703  37.441  23.834  1.00  0.00     0.174 C 
HETATM    3 CL   LIG     1      17.141  35.722  23.668  1.00  0.00    -0.109 Cl
HETATM    4 CL   LIG     1      17.308  38.050  25.394  1.00  0.00    -0.109 Cl
ENDROOT
TORSDOF 0
ENDMDL
MODEL 14
REMARK VINA RESULT:      -2.8      3.725      4.223
REMARK  0 active torsions:
REMARK  status: ('A' for Active; 'I' for Inactive)
ROOT
HETATM    1  C   LIG     1      16.991  35.204  22.979  1.00  0.00     0.043 C 
HETATM    2  C   LIG     1      16.601  35.200  21.507  1.00  0.00     0.174 C 
HETATM    3 CL   LIG     1      14.918  35.751  21.317  1.00  0.00    -0.109 Cl
HETATM    4 CL   LIG     1      17.677  36.280  20.585  1.00  0.00    -0.109 Cl
ENDROOT
TORSDOF 0
ENDMDL
MODEL 15
REMARK VINA RESULT:      -2.8      3.750      3.967
REMARK  0 active torsions:
REMARK  status: ('A' for Active; 'I' for Inactive)
ROOT
HETATM    1  C   LIG     1      16.983  35.207  22.951  1.00  0.00     0.043 C 
HETATM    2  C   LIG     1      16.520  36.229  21.922  1.00  0.00     0.174 C 
HETATM    3 CL   LIG     1      17.663  36.287  20.557  1.00  0.00    -0.109 Cl
HETATM    4 CL   LIG     1      14.903  35.797  21.313  1.00  0.00    -0.109 Cl
ENDROOT
TORSDOF 0
ENDMDL
MODEL 16
REMARK VINA RESULT:      -2.7      4.135      4.885
REMARK  0 active torsions:
REMARK  status: ('A' for Active; 'I' for Inactive)
ROOT
HETATM    1  C   LIG     1      18.632  39.297  21.189  1.00  0.00     0.043 C 
HETATM    2  C   LIG     1      17.537  38.443  21.815  1.00  0.00     0.174 C 
HETATM    3 CL   LIG     1      17.559  36.806  21.114  1.00  0.00    -0.109 Cl
HETATM    4 CL   LIG     1      17.780  38.329  23.575  1.00  0.00    -0.109 Cl
ENDROOT
TORSDOF 0
ENDMDL
MODEL 17
REMARK VINA RESULT:      -2.7      2.888      3.220
REMARK  0 active torsions:
REMARK  status: ('A' for Active; 'I' for Inactive)
ROOT
HETATM    1  C   LIG     1      16.868  36.401  23.008  1.00  0.00     0.043 C 
HETATM    2  C   LIG     1      16.801  37.854  23.460  1.00  0.00     0.174 C 
HETATM    3 CL   LIG     1      17.206  37.978  25.190  1.00  0.00    -0.109 Cl
HETATM    4 CL   LIG     1      17.946  38.842  22.519  1.00  0.00    -0.109 Cl
ENDROOT
TORSDOF 0
ENDMDL
MODEL 18
REMARK VINA RESULT:      -2.7      3.959      4.212
REMARK  0 active torsions:
REMARK  status: ('A' for Active; 'I' for Inactive)
ROOT
HETATM    1  C   LIG     1      17.190  36.289  21.272  1.00  0.00     0.043 C 
HETATM    2  C   LIG     1      17.202  37.479  22.222  1.00  0.00     0.174 C 
HETATM    3 CL   LIG     1      17.837  38.921  21.392  1.00  0.00    -0.109 Cl
HETATM    4 CL   LIG     1      15.552  37.817  22.802  1.00  0.00    -0.109 Cl
ENDROOT
TORSDOF 0
ENDMDL
MODEL 19
REMARK VINA RESULT:      -2.6      3.631      3.916
REMARK  0 active torsions:
REMARK  status: ('A' for Active; 'I' for Inactive)
ROOT
HETATM    1  C   LIG     1      16.947  36.065  22.527  1.00  0.00     0.043 C 
HETATM    2  C   LIG     1      17.237  37.188  21.541  1.00  0.00     0.174 C 
HETATM    3 CL   LIG     1      17.999  38.561  22.381  1.00  0.00    -0.109 Cl
HETATM    4 CL   LIG     1      18.328  36.610  20.257  1.00  0.00    -0.109 Cl
ENDROOT
TORSDOF 0
ENDMDL
MODEL 20
REMARK VINA RESULT:      -2.6     12.443     12.869
REMARK  0 active torsions:
REMARK  status: ('A' for Active; 'I' for Inactive)
ROOT
HETATM    1  C   LIG     1      15.203  28.640  13.815  1.00  0.00     0.043 C 
HETATM    2  C   LIG     1      15.163  29.995  14.509  1.00  0.00     0.174 C 
HETATM    3 CL   LIG     1      15.604  31.286  13.364  1.00  0.00    -0.109 Cl
HETATM    4 CL   LIG     1      13.528  30.310  15.143  1.00  0.00    -0.109 Cl
ENDROOT
TORSDOF 0
ENDMDL
