REMARK  0 active torsions:
REMARK  status: ('A' for Active; 'I' for Inactive)
ROOT
HETATM    1  C   LIG     1      -0.817  -0.075   0.046  1.00  0.00     0.043 C 
HETATM    2  C   LIG     1       0.701   0.036   0.098  1.00  0.00     0.174 C 
HETATM    3 CL   LIG     1       1.442  -1.163  -0.991  1.00  0.00    -0.109 Cl
HETATM    4 CL   LIG     1       1.213   1.669  -0.395  1.00  0.00    -0.109 Cl
ENDROOT
TORSDOF 0
