REMARK  0 active torsions:
REMARK  status: ('A' for Active; 'I' for Inactive)
ROOT
HETATM    1  C   LIG     1      -1.265  -0.264  -0.085  1.00  0.00     0.021 C 
HETATM    2  C   LIG     1       0.014   0.569  -0.068  1.00  0.00     0.045 C 
HETATM    3  I   LIG     1       0.029   1.840   1.655  1.00  0.00    -0.086 I 
HETATM    4  C   LIG     1       1.253  -0.323  -0.063  1.00  0.00     0.021 C 
ENDROOT
TORSDOF 0
