REMARK  0 active torsions:
REMARK  status: ('A' for Active; 'I' for Inactive)
ROOT
HETATM    1  C   LIG     1      -0.770   0.001   0.116  1.00  0.00     0.050 C 
HETATM    2  C   LIG     1       0.549  -0.001  -0.083  1.00  0.00     0.094 C 
HETATM    3 CL   LIG     1       1.526  -1.354   0.464  1.00  0.00    -0.072 Cl
HETATM    4 CL   LIG     1       1.325   1.350  -0.893  1.00  0.00    -0.072 Cl
ENDROOT
TORSDOF 0
