MODEL 1
REMARK VINA RESULT:      -3.3      0.000      0.000
REMARK  0 active torsions:
REMARK  status: ('A' for Active; 'I' for Inactive)
ROOT
HETATM    1  C   LIG     1      17.860  34.905  26.203  1.00  0.00     0.050 C 
HETATM    2  C   LIG     1      17.505  35.743  25.227  1.00  0.00     0.094 C 
HETATM    3 CL   LIG     1      17.416  37.470  25.531  1.00  0.00    -0.072 Cl
HETATM    4 CL   LIG     1      17.119  35.128  23.628  1.00  0.00    -0.072 Cl
ENDROOT
TORSDOF 0
ENDMDL
MODEL 2
REMARK VINA RESULT:      -3.3      1.543      2.788
REMARK  0 active torsions:
REMARK  status: ('A' for Active; 'I' for Inactive)
ROOT
HETATM    1  C   LIG     1      17.218  37.628  25.012  1.00  0.00     0.050 C 
HETATM    2  C   LIG     1      17.625  36.424  25.415  1.00  0.00     0.094 C 
HETATM    3 CL   LIG     1      17.289  35.002  24.441  1.00  0.00    -0.072 Cl
HETATM    4 CL   LIG     1      18.502  36.245  26.926  1.00  0.00    -0.072 Cl
ENDROOT
TORSDOF 0
ENDMDL
MODEL 3
REMARK VINA RESULT:      -3.2      1.650      1.911
REMARK  0 active torsions:
REMARK  status: ('A' for Active; 'I' for Inactive)
ROOT
HETATM    1  C   LIG     1      17.108  35.208  24.046  1.00  0.00     0.050 C 
HETATM    2  C   LIG     1      17.545  35.774  25.172  1.00  0.00     0.094 C 
HETATM    3 CL   LIG     1      17.305  37.491  25.451  1.00  0.00    -0.072 Cl
HETATM    4 CL   LIG     1      18.367  34.811  26.388  1.00  0.00    -0.072 Cl
ENDROOT
TORSDOF 0
ENDMDL
MODEL 4
REMARK VINA RESULT:      -3.0      5.692      6.042
REMARK  0 active torsions:
REMARK  status: ('A' for Active; 'I' for Inactive)
ROOT
HETATM    1  C   LIG     1      20.278  38.897  19.433  1.00  0.00     0.050 C 
HETATM    2  C   LIG     1      19.249  38.375  20.102  1.00  0.00     0.094 C 
HETATM    3 CL   LIG     1      18.409  39.325  21.318  1.00  0.00    -0.072 Cl
HETATM    4 CL   LIG     1      18.721  36.732  19.777  1.00  0.00    -0.072 Cl
ENDROOT
TORSDOF 0
ENDMDL
MODEL 5
REMARK VINA RESULT:      -3.0      4.902      5.648
REMARK  0 active torsions:
REMARK  status: ('A' for Active; 'I' for Inactive)
ROOT
HETATM    1  C   LIG     1      18.882  39.245  20.587  1.00  0.00     0.050 C 
HETATM    2  C   LIG     1      18.496  37.968  20.608  1.00  0.00     0.094 C 
HETATM    3 CL   LIG     1      19.223  36.805  19.511  1.00  0.00    -0.072 Cl
HETATM    4 CL   LIG     1      17.256  37.435  21.730  1.00  0.00    -0.072 Cl
ENDROOT
TORSDOF 0
ENDMDL
MODEL 6
REMARK VINA RESULT:      -2.9      5.163      5.605
REMARK  0 active torsions:
REMARK  status: ('A' for Active; 'I' for Inactive)
ROOT
HETATM    1  C   LIG     1      19.342  39.312  20.253  1.00  0.00     0.050 C 
HETATM    2  C   LIG     1      18.738  38.142  20.465  1.00  0.00     0.094 C 
HETATM    3 CL   LIG     1      17.514  37.989  21.715  1.00  0.00    -0.072 Cl
HETATM    4 CL   LIG     1      19.160  36.739  19.497  1.00  0.00    -0.072 Cl
ENDROOT
TORSDOF 0
ENDMDL
MODEL 7
REMARK VINA RESULT:      -2.9      2.078      2.281
REMARK  0 active torsions:
REMARK  status: ('A' for Active; 'I' for Inactive)
ROOT
HETATM    1  C   LIG     1      17.381  37.844  25.405  1.00  0.00     0.050 C 
HETATM    2  C   LIG     1      16.977  36.990  24.463  1.00  0.00     0.094 C 
HETATM    3 CL   LIG     1      16.093  37.571  23.061  1.00  0.00    -0.072 Cl
HETATM    4 CL   LIG     1      17.322  35.275  24.613  1.00  0.00    -0.072 Cl
ENDROOT
TORSDOF 0
ENDMDL
MODEL 8
REMARK VINA RESULT:      -2.9      4.510      4.812
REMARK  0 active torsions:
REMARK  status: ('A' for Active; 'I' for Inactive)
ROOT
HETATM    1  C   LIG     1      17.277  35.984  21.081  1.00  0.00     0.050 C 
HETATM    2  C   LIG     1      18.041  37.015  20.717  1.00  0.00     0.094 C 
HETATM    3 CL   LIG     1      17.816  38.591  21.458  1.00  0.00    -0.072 Cl
HETATM    4 CL   LIG     1      19.282  36.809  19.491  1.00  0.00    -0.072 Cl
ENDROOT
TORSDOF 0
ENDMDL
MODEL 9
REMARK VINA RESULT:      -2.9      6.363      6.957
REMARK  0 active torsions:
REMARK  status: ('A' for Active; 'I' for Inactive)
ROOT
HETATM    1  C   LIG     1      19.296  39.365  20.372  1.00  0.00     0.050 C 
HETATM    2  C   LIG     1      19.034  38.564  19.338  1.00  0.00     0.094 C 
HETATM    3 CL   LIG     1      18.886  36.830  19.576  1.00  0.00    -0.072 Cl
HETATM    4 CL   LIG     1      18.835  39.232  17.726  1.00  0.00    -0.072 Cl
ENDROOT
TORSDOF 0
ENDMDL
MODEL 10
REMARK VINA RESULT:      -2.8      4.717      5.398
REMARK  0 active torsions:
REMARK  status: ('A' for Active; 'I' for Inactive)
ROOT
HETATM    1  C   LIG     1      18.966  36.845  19.413  1.00  0.00     0.050 C 
HETATM    2  C   LIG     1      18.216  37.062  20.495  1.00  0.00     0.094 C 
HETATM    3 CL   LIG     1      17.372  35.731  21.270  1.00  0.00    -0.072 Cl
HETATM    4 CL   LIG     1      18.063  38.681  21.156  1.00  0.00    -0.072 Cl
ENDROOT
TORSDOF 0
ENDMDL
MODEL 11
REMARK VINA RESULT:      -2.7      2.680      3.210
REMARK  0 active torsions:
REMARK  status: ('A' for Active; 'I' for Inactive)
ROOT
HETATM    1  C   LIG     1      16.876  36.371  23.060  1.00  0.00     0.050 C 
HETATM    2  C   LIG     1      16.912  37.596  23.586  1.00  0.00     0.094 C 
HETATM    3 CL   LIG     1      16.686  39.006  22.563  1.00  0.00    -0.072 Cl
HETATM    4 CL   LIG     1      17.187  37.815  25.306  1.00  0.00    -0.072 Cl
ENDROOT
TORSDOF 0
ENDMDL
MODEL 12
REMARK VINA RESULT:      -2.7      3.183      3.707
REMARK  0 active torsions:
REMARK  status: ('A' for Active; 'I' for Inactive)
ROOT
HETATM    1  C   LIG     1      16.339  37.616  22.566  1.00  0.00     0.050 C 
HETATM    2  C   LIG     1      16.976  36.506  22.188  1.00  0.00     0.094 C 
HETATM    3 CL   LIG     1      17.047  35.117  23.260  1.00  0.00    -0.072 Cl
HETATM    4 CL   LIG     1      17.753  36.422  20.616  1.00  0.00    -0.072 Cl
ENDROOT
TORSDOF 0
ENDMDL
MODEL 13
REMARK VINA RESULT:      -2.7      6.404      7.018
REMARK  0 active torsions:
REMARK  status: ('A' for Active; 'I' for Inactive)
ROOT
HETATM    1  C   LIG     1      14.868  31.263  20.055  1.00  0.00     0.050 C 
HETATM    2  C   LIG     1      15.232  32.405  19.471  1.00  0.00     0.094 C 
HETATM    3 CL   LIG     1      15.776  33.764  20.442  1.00  0.00    -0.072 Cl
HETATM    4 CL   LIG     1      15.170  32.566  17.723  1.00  0.00    -0.072 Cl
ENDROOT
TORSDOF 0
ENDMDL
MODEL 14
REMARK VINA RESULT:      -2.7      3.225      3.834
REMARK  0 active torsions:
REMARK  status: ('A' for Active; 'I' for Inactive)
ROOT
HETATM    1  C   LIG     1      16.394  37.600  22.572  1.00  0.00     0.050 C 
HETATM    2  C   LIG     1      16.988  36.480  22.157  1.00  0.00     0.094 C 
HETATM    3 CL   LIG     1      17.759  36.417  20.581  1.00  0.00    -0.072 Cl
HETATM    4 CL   LIG     1      17.003  35.054  23.182  1.00  0.00    -0.072 Cl
ENDROOT
TORSDOF 0
ENDMDL
MODEL 15
REMARK VINA RESULT:      -2.7     12.526     13.044
REMARK  0 active torsions:
REMARK  status: ('A' for Active; 'I' for Inactive)
ROOT
HETATM    1  C   LIG     1      15.458  30.952  13.578  1.00  0.00     0.050 C 
HETATM    2  C   LIG     1      14.791  29.936  14.127  1.00  0.00     0.094 C 
HETATM    3 CL   LIG     1      15.282  28.279  13.813  1.00  0.00    -0.072 Cl
HETATM    4 CL   LIG     1      13.411  30.242  15.170  1.00  0.00    -0.072 Cl
ENDROOT
TORSDOF 0
ENDMDL
MODEL 16
REMARK VINA RESULT:      -2.7     11.394     11.869
REMARK  0 active torsions:
REMARK  status: ('A' for Active; 'I' for Inactive)
ROOT
HETATM    1  C   LIG     1      14.932  29.697  14.044  1.00  0.00     0.050 C 
HETATM    2  C   LIG     1      14.568  30.638  14.916  1.00  0.00     0.094 C 
HETATM    3 CL   LIG     1      15.615  32.015  15.222  1.00  0.00    -0.072 Cl
HETATM    4 CL   LIG     1      13.039  30.512  15.770  1.00  0.00    -0.072 Cl
ENDROOT
TORSDOF 0
ENDMDL
MODEL 17
REMARK VINA RESULT:      -2.7     11.460     11.984
REMARK  0 active torsions:
REMARK  status: ('A' for Active; 'I' for Inactive)
ROOT
HETATM    1  C   LIG     1      14.964  29.592  14.087  1.00  0.00     0.050 C 
HETATM    2  C   LIG     1      14.576  30.591  14.880  1.00  0.00     0.094 C 
HETATM    3 CL   LIG     1      13.009  30.536  15.672  1.00  0.00    -0.072 Cl
HETATM    4 CL   LIG     1      15.625  31.975  15.142  1.00  0.00    -0.072 Cl
ENDROOT
TORSDOF 0
ENDMDL
MODEL 18
REMARK VINA RESULT:      -2.7      3.904      4.136
REMARK  0 active torsions:
REMARK  status: ('A' for Active; 'I' for Inactive)
ROOT
HETATM    1  C   LIG     1      17.358  36.447  21.202  1.00  0.00     0.050 C 
HETATM    2  C   LIG     1      17.145  37.574  21.883  1.00  0.00     0.094 C 
HETATM    3 CL   LIG     1      18.324  38.875  21.833  1.00  0.00    -0.072 Cl
HETATM    4 CL   LIG     1      15.685  37.771  22.839  1.00  0.00    -0.072 Cl
ENDROOT
TORSDOF 0
ENDMDL
MODEL 19
REMARK VINA RESULT:      -2.6      2.920      3.276
REMARK  0 active torsions:
REMARK  status: ('A' for Active; 'I' for Inactive)
ROOT
HETATM    1  C   LIG     1      16.814  36.284  22.463  1.00  0.00     0.050 C 
HETATM    2  C   LIG     1      17.002  37.488  23.006  1.00  0.00     0.094 C 
HETATM    3 CL   LIG     1      16.889  37.704  24.745  1.00  0.00    -0.072 Cl
HETATM    4 CL   LIG     1      17.364  38.872  21.987  1.00  0.00    -0.072 Cl
ENDROOT
TORSDOF 0
ENDMDL
MODEL 20
REMARK VINA RESULT:      -2.6     12.044     12.520
REMARK  0 active torsions:
REMARK  status: ('A' for Active; 'I' for Inactive)
ROOT
HETATM    1  C   LIG     1      15.536  31.211  14.375  1.00  0.00     0.050 C 
HETATM    2  C   LIG     1      14.721  30.164  14.511  1.00  0.00     0.094 C 
HETATM    3 CL   LIG     1      13.191  30.335  15.357  1.00  0.00    -0.072 Cl
HETATM    4 CL   LIG     1      15.167  28.601  13.846  1.00  0.00    -0.072 Cl
ENDROOT
TORSDOF 0
ENDMDL
