REMARK  0 active torsions:
REMARK  status: ('A' for Active; 'I' for Inactive)
ROOT
HETATM    1  C   LIG     1       1.203   0.289  -0.048  1.00  0.00     0.042 C 
HETATM    2  C   LIG     1      -0.051  -0.507   0.300  1.00  0.00     0.141 A 
HETATM    3  C   LIG     1      -1.322  -0.031  -0.290  1.00  0.00     0.199 A 
HETATM    4  O   LIG     1      -0.968   0.259   1.044  1.00  0.00    -0.382 OA
ENDROOT
TORSDOF 0
