REMARK  0 active torsions:
REMARK  status: ('A' for Active; 'I' for Inactive)
ROOT
HETATM    1  C   LIG     1      -0.606  -0.993  -0.764  1.00  0.00     0.308 C 
HETATM    2  N   LIG     1      -0.174  -0.244   0.426  1.00  0.00     0.075 N 
HETATM    3  C   LIG     1       1.295  -0.184   0.475  1.00  0.00     0.308 C 
HETATM    4  C   LIG     1      -0.731   1.117   0.393  1.00  0.00     0.308 C 
ENDROOT
TORSDOF 0
