MODEL 1
REMARK VINA RESULT:      -2.3      0.000      0.000
REMARK  0 active torsions:
REMARK  status: ('A' for Active; 'I' for Inactive)
ROOT
HETATM    1  C   LIG     1      18.319  36.290  26.814  1.00  0.00     0.308 C 
HETATM    2  N   LIG     1      18.002  36.442  25.386  1.00  0.00     0.075 N 
HETATM    3  C   LIG     1      17.293  35.248  24.900  1.00  0.00     0.308 C 
HETATM    4  C   LIG     1      17.171  37.638  25.180  1.00  0.00     0.308 C 
ENDROOT
TORSDOF 0
ENDMDL
MODEL 2
REMARK VINA RESULT:      -2.3      0.106      2.049
REMARK  0 active torsions:
REMARK  status: ('A' for Active; 'I' for Inactive)
ROOT
HETATM    1  C   LIG     1      17.320  35.130  24.948  1.00  0.00     0.308 C 
HETATM    2  N   LIG     1      17.990  36.369  25.370  1.00  0.00     0.075 N 
HETATM    3  C   LIG     1      17.124  37.526  25.095  1.00  0.00     0.308 C 
HETATM    4  C   LIG     1      18.303  36.307  26.806  1.00  0.00     0.308 C 
ENDROOT
TORSDOF 0
ENDMDL
MODEL 3
REMARK VINA RESULT:      -2.3      5.720      6.290
REMARK  0 active torsions:
REMARK  status: ('A' for Active; 'I' for Inactive)
ROOT
HETATM    1  C   LIG     1      18.599  39.005  21.159  1.00  0.00     0.308 C 
HETATM    2  N   LIG     1      18.937  38.479  19.828  1.00  0.00     0.075 N 
HETATM    3  C   LIG     1      20.330  38.812  19.496  1.00  0.00     0.308 C 
HETATM    4  C   LIG     1      18.750  37.020  19.803  1.00  0.00     0.308 C 
ENDROOT
TORSDOF 0
ENDMDL
MODEL 4
REMARK VINA RESULT:      -2.3      2.238      3.065
REMARK  0 active torsions:
REMARK  status: ('A' for Active; 'I' for Inactive)
ROOT
HETATM    1  C   LIG     1      16.961  38.905  22.781  1.00  0.00     0.308 C 
HETATM    2  N   LIG     1      16.515  37.790  23.631  1.00  0.00     0.075 N 
HETATM    3  C   LIG     1      16.851  36.508  22.992  1.00  0.00     0.308 C 
HETATM    4  C   LIG     1      17.156  37.876  24.952  1.00  0.00     0.308 C 
ENDROOT
TORSDOF 0
ENDMDL
MODEL 5
REMARK VINA RESULT:      -2.3      2.278      3.143
REMARK  0 active torsions:
REMARK  status: ('A' for Active; 'I' for Inactive)
ROOT
HETATM    1  C   LIG     1      17.106  37.834  24.903  1.00  0.00     0.308 C 
HETATM    2  N   LIG     1      16.478  37.766  23.575  1.00  0.00     0.075 N 
HETATM    3  C   LIG     1      16.921  38.901  22.751  1.00  0.00     0.308 C 
HETATM    4  C   LIG     1      16.832  36.500  22.916  1.00  0.00     0.308 C 
ENDROOT
TORSDOF 0
ENDMDL
MODEL 6
REMARK VINA RESULT:      -2.3      2.287      3.135
REMARK  0 active torsions:
REMARK  status: ('A' for Active; 'I' for Inactive)
ROOT
HETATM    1  C   LIG     1      16.827  36.494  22.896  1.00  0.00     0.308 C 
HETATM    2  N   LIG     1      16.470  37.758  23.558  1.00  0.00     0.075 N 
HETATM    3  C   LIG     1      17.096  37.821  24.888  1.00  0.00     0.308 C 
HETATM    4  C   LIG     1      16.913  38.897  22.740  1.00  0.00     0.308 C 
ENDROOT
TORSDOF 0
ENDMDL
MODEL 7
REMARK VINA RESULT:      -2.2      2.335      2.953
REMARK  0 active torsions:
REMARK  status: ('A' for Active; 'I' for Inactive)
ROOT
HETATM    1  C   LIG     1      17.172  37.917  24.826  1.00  0.00     0.308 C 
HETATM    2  N   LIG     1      17.123  37.685  23.374  1.00  0.00     0.075 N 
HETATM    3  C   LIG     1      15.731  37.741  22.903  1.00  0.00     0.308 C 
HETATM    4  C   LIG     1      17.930  38.698  22.676  1.00  0.00     0.308 C 
ENDROOT
TORSDOF 0
ENDMDL
MODEL 8
REMARK VINA RESULT:      -2.2      2.361      3.344
REMARK  0 active torsions:
REMARK  status: ('A' for Active; 'I' for Inactive)
ROOT
HETATM    1  C   LIG     1      17.933  38.725  22.629  1.00  0.00     0.308 C 
HETATM    2  N   LIG     1      17.141  37.716  23.348  1.00  0.00     0.075 N 
HETATM    3  C   LIG     1      17.215  37.959  24.797  1.00  0.00     0.308 C 
HETATM    4  C   LIG     1      15.740  37.766  22.902  1.00  0.00     0.308 C 
ENDROOT
TORSDOF 0
ENDMDL
MODEL 9
REMARK VINA RESULT:      -2.0      3.719      4.058
REMARK  0 active torsions:
REMARK  status: ('A' for Active; 'I' for Inactive)
ROOT
HETATM    1  C   LIG     1      15.971  37.548  22.701  1.00  0.00     0.308 C 
HETATM    2  N   LIG     1      17.319  37.369  22.140  1.00  0.00     0.075 N 
HETATM    3  C   LIG     1      17.297  36.319  21.110  1.00  0.00     0.308 C 
HETATM    4  C   LIG     1      17.794  38.633  21.558  1.00  0.00     0.308 C 
ENDROOT
TORSDOF 0
ENDMDL
MODEL 10
REMARK VINA RESULT:      -2.0      4.402      5.071
REMARK  0 active torsions:
REMARK  status: ('A' for Active; 'I' for Inactive)
ROOT
HETATM    1  C   LIG     1      17.891  37.092  20.842  1.00  0.00     0.308 C 
HETATM    2  N   LIG     1      18.312  38.327  21.521  1.00  0.00     0.075 N 
HETATM    3  C   LIG     1      18.797  39.303  20.532  1.00  0.00     0.308 C 
HETATM    4  C   LIG     1      17.184  38.896  22.275  1.00  0.00     0.308 C 
ENDROOT
TORSDOF 0
ENDMDL
MODEL 11
REMARK VINA RESULT:      -2.0     13.585     13.911
REMARK  0 active torsions:
REMARK  status: ('A' for Active; 'I' for Inactive)
ROOT
HETATM    1  C   LIG     1      15.369  30.656  13.526  1.00  0.00     0.308 C 
HETATM    2  N   LIG     1      14.900  29.530  14.348  1.00  0.00     0.075 N 
HETATM    3  C   LIG     1      13.440  29.600  14.510  1.00  0.00     0.308 C 
HETATM    4  C   LIG     1      15.274  28.256  13.714  1.00  0.00     0.308 C 
ENDROOT
TORSDOF 0
ENDMDL
MODEL 12
REMARK VINA RESULT:      -2.0     12.830     13.203
REMARK  0 active torsions:
REMARK  status: ('A' for Active; 'I' for Inactive)
ROOT
HETATM    1  C   LIG     1      15.281  29.024  13.966  1.00  0.00     0.308 C 
HETATM    2  N   LIG     1      14.636  30.344  14.044  1.00  0.00     0.075 N 
HETATM    3  C   LIG     1      13.773  30.410  15.233  1.00  0.00     0.308 C 
HETATM    4  C   LIG     1      15.658  31.400  14.106  1.00  0.00     0.308 C 
ENDROOT
TORSDOF 0
ENDMDL
MODEL 13
REMARK VINA RESULT:      -2.0      4.274      5.003
REMARK  0 active torsions:
REMARK  status: ('A' for Active; 'I' for Inactive)
ROOT
HETATM    1  C   LIG     1      18.080  36.580  20.321  1.00  0.00     0.308 C 
HETATM    2  N   LIG     1      17.166  35.849  21.212  1.00  0.00     0.075 N 
HETATM    3  C   LIG     1      16.619  36.762  22.228  1.00  0.00     0.308 C 
HETATM    4  C   LIG     1      16.071  35.253  20.431  1.00  0.00     0.308 C 
ENDROOT
TORSDOF 0
ENDMDL
MODEL 14
REMARK VINA RESULT:      -2.0      3.602      4.094
REMARK  0 active torsions:
REMARK  status: ('A' for Active; 'I' for Inactive)
ROOT
HETATM    1  C   LIG     1      16.880  36.288  23.016  1.00  0.00     0.308 C 
HETATM    2  N   LIG     1      17.096  35.432  21.840  1.00  0.00     0.075 N 
HETATM    3  C   LIG     1      15.844  34.748  21.481  1.00  0.00     0.308 C 
HETATM    4  C   LIG     1      17.566  36.244  20.707  1.00  0.00     0.308 C 
ENDROOT
TORSDOF 0
ENDMDL
MODEL 15
REMARK VINA RESULT:      -2.0      9.020      9.988
REMARK  0 active torsions:
REMARK  status: ('A' for Active; 'I' for Inactive)
ROOT
HETATM    1  C   LIG     1      13.748  31.133  16.777  1.00  0.00     0.308 C 
HETATM    2  N   LIG     1      14.253  32.388  17.354  1.00  0.00     0.075 N 
HETATM    3  C   LIG     1      14.844  32.131  18.676  1.00  0.00     0.308 C 
HETATM    4  C   LIG     1      15.260  32.982  16.461  1.00  0.00     0.308 C 
ENDROOT
TORSDOF 0
ENDMDL
MODEL 16
REMARK VINA RESULT:      -2.0      9.034      9.959
REMARK  0 active torsions:
REMARK  status: ('A' for Active; 'I' for Inactive)
ROOT
HETATM    1  C   LIG     1      14.865  32.176  18.647  1.00  0.00     0.308 C 
HETATM    2  N   LIG     1      14.282  32.403  17.316  1.00  0.00     0.075 N 
HETATM    3  C   LIG     1      15.303  32.949  16.408  1.00  0.00     0.308 C 
HETATM    4  C   LIG     1      13.753  31.141  16.777  1.00  0.00     0.308 C 
ENDROOT
TORSDOF 0
ENDMDL
MODEL 17
REMARK VINA RESULT:      -1.9      9.031      9.959
REMARK  0 active torsions:
REMARK  status: ('A' for Active; 'I' for Inactive)
ROOT
HETATM    1  C   LIG     1      15.308  32.969  16.397  1.00  0.00     0.308 C 
HETATM    2  N   LIG     1      14.289  32.424  17.307  1.00  0.00     0.075 N 
HETATM    3  C   LIG     1      13.762  31.160  16.770  1.00  0.00     0.308 C 
HETATM    4  C   LIG     1      14.874  32.198  18.638  1.00  0.00     0.308 C 
ENDROOT
TORSDOF 0
ENDMDL
MODEL 18
REMARK VINA RESULT:      -1.9     11.621     12.540
REMARK  0 active torsions:
REMARK  status: ('A' for Active; 'I' for Inactive)
ROOT
HETATM    1  C   LIG     1      15.345  30.673  13.435  1.00  0.00     0.308 C 
HETATM    2  N   LIG     1      15.298  30.830  14.897  1.00  0.00     0.075 N 
HETATM    3  C   LIG     1      15.726  32.187  15.270  1.00  0.00     0.308 C 
HETATM    4  C   LIG     1      13.933  30.582  15.386  1.00  0.00     0.308 C 
ENDROOT
TORSDOF 0
ENDMDL
MODEL 19
REMARK VINA RESULT:      -1.8     13.920     14.667
REMARK  0 active torsions:
REMARK  status: ('A' for Active; 'I' for Inactive)
ROOT
HETATM    1  C   LIG     1      19.006  34.817  10.534  1.00  0.00     0.308 C 
HETATM    2  N   LIG     1      19.444  33.827  11.529  1.00  0.00     0.075 N 
HETATM    3  C   LIG     1      18.436  33.705  12.593  1.00  0.00     0.308 C 
HETATM    4  C   LIG     1      19.652  32.522  10.883  1.00  0.00     0.308 C 
ENDROOT
TORSDOF 0
ENDMDL
MODEL 20
REMARK VINA RESULT:      -1.8     13.091     13.702
REMARK  0 active torsions:
REMARK  status: ('A' for Active; 'I' for Inactive)
ROOT
HETATM    1  C   LIG     1      20.897  34.083  12.561  1.00  0.00     0.308 C 
HETATM    2  N   LIG     1      19.543  33.679  12.155  1.00  0.00     0.075 N 
HETATM    3  C   LIG     1      18.625  33.781  13.300  1.00  0.00     0.308 C 
HETATM    4  C   LIG     1      19.071  34.534  11.055  1.00  0.00     0.308 C 
ENDROOT
TORSDOF 0
ENDMDL
