MODEL 1
REMARK VINA RESULT:      -3.1      0.000      0.000
REMARK  0 active torsions:
REMARK  status: ('A' for Active; 'I' for Inactive)
ROOT
HETATM    1  C   LIG     1      18.348  36.702  26.348  1.00  0.00     0.042 C 
HETATM    2  C   LIG     1      17.391  36.998  25.198  1.00  0.00     0.141 A 
HETATM    3  C   LIG     1      17.759  38.117  24.302  1.00  0.00     0.199 A 
HETATM    4  O   LIG     1      16.798  38.269  25.323  1.00  0.00    -0.382 OA
ENDROOT
TORSDOF 0
ENDMDL
MODEL 2
REMARK VINA RESULT:      -2.9      1.480      1.623
REMARK  0 active torsions:
REMARK  status: ('A' for Active; 'I' for Inactive)
ROOT
HETATM    1  C   LIG     1      17.453  37.865  25.470  1.00  0.00     0.042 C 
HETATM    2  C   LIG     1      16.791  37.357  24.193  1.00  0.00     0.141 A 
HETATM    3  C   LIG     1      16.738  38.301  23.054  1.00  0.00     0.199 A 
HETATM    4  O   LIG     1      15.622  38.078  23.887  1.00  0.00    -0.382 OA
ENDROOT
TORSDOF 0
ENDMDL
MODEL 3
REMARK VINA RESULT:      -2.8      1.213      2.449
REMARK  0 active torsions:
REMARK  status: ('A' for Active; 'I' for Inactive)
ROOT
HETATM    1  C   LIG     1      17.481  38.247  22.469  1.00  0.00     0.042 C 
HETATM    2  C   LIG     1      17.522  38.216  23.994  1.00  0.00     0.141 A 
HETATM    3  C   LIG     1      17.163  36.933  24.639  1.00  0.00     0.199 A 
HETATM    4  O   LIG     1      16.246  38.000  24.548  1.00  0.00    -0.382 OA
ENDROOT
TORSDOF 0
ENDMDL
MODEL 4
REMARK VINA RESULT:      -2.8      5.027      5.779
REMARK  0 active torsions:
REMARK  status: ('A' for Active; 'I' for Inactive)
ROOT
HETATM    1  C   LIG     1      18.700  39.155  21.622  1.00  0.00     0.042 C 
HETATM    2  C   LIG     1      18.813  39.346  20.113  1.00  0.00     0.141 A 
HETATM    3  C   LIG     1      19.478  38.262  19.357  1.00  0.00     0.199 A 
HETATM    4  O   LIG     1      20.154  39.452  19.698  1.00  0.00    -0.382 OA
ENDROOT
TORSDOF 0
ENDMDL
MODEL 5
REMARK VINA RESULT:      -2.6      4.403      5.365
REMARK  0 active torsions:
REMARK  status: ('A' for Active; 'I' for Inactive)
ROOT
HETATM    1  C   LIG     1      20.177  38.835  19.631  1.00  0.00     0.042 C 
HETATM    2  C   LIG     1      18.833  39.227  20.239  1.00  0.00     0.141 A 
HETATM    3  C   LIG     1      18.727  39.156  21.713  1.00  0.00     0.199 A 
HETATM    4  O   LIG     1      18.212  38.139  20.882  1.00  0.00    -0.382 OA
ENDROOT
TORSDOF 0
ENDMDL
MODEL 6
REMARK VINA RESULT:      -2.5     10.724     11.052
REMARK  0 active torsions:
REMARK  status: ('A' for Active; 'I' for Inactive)
ROOT
HETATM    1  C   LIG     1      13.582  30.661  15.725  1.00  0.00     0.042 C 
HETATM    2  C   LIG     1      13.348  31.664  16.850  1.00  0.00     0.141 A 
HETATM    3  C   LIG     1      14.552  32.298  17.433  1.00  0.00     0.199 A 
HETATM    4  O   LIG     1      13.898  31.222  18.068  1.00  0.00    -0.382 OA
ENDROOT
TORSDOF 0
ENDMDL
MODEL 7
REMARK VINA RESULT:      -2.5      7.705      8.118
REMARK  0 active torsions:
REMARK  status: ('A' for Active; 'I' for Inactive)
ROOT
HETATM    1  C   LIG     1      12.627  30.599  25.785  1.00  0.00     0.042 C 
HETATM    2  C   LIG     1      12.613  31.119  27.219  1.00  0.00     0.141 A 
HETATM    3  C   LIG     1      13.516  32.252  27.521  1.00  0.00     0.199 A 
HETATM    4  O   LIG     1      13.851  30.924  27.860  1.00  0.00    -0.382 OA
ENDROOT
TORSDOF 0
ENDMDL
MODEL 8
REMARK VINA RESULT:      -2.5      8.132      8.413
REMARK  0 active torsions:
REMARK  status: ('A' for Active; 'I' for Inactive)
ROOT
HETATM    1  C   LIG     1      15.455  33.415  20.333  1.00  0.00     0.042 C 
HETATM    2  C   LIG     1      15.567  32.122  19.531  1.00  0.00     0.141 A 
HETATM    3  C   LIG     1      14.591  31.936  18.434  1.00  0.00     0.199 A 
HETATM    4  O   LIG     1      14.429  31.308  19.687  1.00  0.00    -0.382 OA
ENDROOT
TORSDOF 0
ENDMDL
MODEL 9
REMARK VINA RESULT:      -2.4      5.263      5.515
REMARK  0 active torsions:
REMARK  status: ('A' for Active; 'I' for Inactive)
ROOT
HETATM    1  C   LIG     1      17.022  35.185  22.158  1.00  0.00     0.042 C 
HETATM    2  C   LIG     1      15.845  35.146  21.187  1.00  0.00     0.141 A 
HETATM    3  C   LIG     1      15.649  33.886  20.437  1.00  0.00     0.199 A 
HETATM    4  O   LIG     1      16.272  35.009  19.853  1.00  0.00    -0.382 OA
ENDROOT
TORSDOF 0
ENDMDL
MODEL 10
REMARK VINA RESULT:      -2.3     13.321     13.612
REMARK  0 active torsions:
REMARK  status: ('A' for Active; 'I' for Inactive)
ROOT
HETATM    1  C   LIG     1      22.156  34.927  12.975  1.00  0.00     0.042 C 
HETATM    2  C   LIG     1      21.055  33.938  12.605  1.00  0.00     0.141 A 
HETATM    3  C   LIG     1      20.161  34.329  11.493  1.00  0.00     0.199 A 
HETATM    4  O   LIG     1      19.773  34.470  12.842  1.00  0.00    -0.382 OA
ENDROOT
TORSDOF 0
ENDMDL
MODEL 11
REMARK VINA RESULT:      -2.3     12.628     12.929
REMARK  0 active torsions:
REMARK  status: ('A' for Active; 'I' for Inactive)
ROOT
HETATM    1  C   LIG     1      15.042  29.875  14.075  1.00  0.00     0.042 C 
HETATM    2  C   LIG     1      15.356  31.287  14.557  1.00  0.00     0.141 A 
HETATM    3  C   LIG     1      16.131  32.145  13.633  1.00  0.00     0.199 A 
HETATM    4  O   LIG     1      16.740  31.489  14.722  1.00  0.00    -0.382 OA
ENDROOT
TORSDOF 0
ENDMDL
MODEL 12
REMARK VINA RESULT:      -2.3     11.324     11.627
REMARK  0 active torsions:
REMARK  status: ('A' for Active; 'I' for Inactive)
ROOT
HETATM    1  C   LIG     1      14.177  32.530  16.922  1.00  0.00     0.042 C 
HETATM    2  C   LIG     1      13.822  31.047  16.882  1.00  0.00     0.141 A 
HETATM    3  C   LIG     1      13.171  30.556  15.647  1.00  0.00     0.199 A 
HETATM    4  O   LIG     1      12.431  30.842  16.814  1.00  0.00    -0.382 OA
ENDROOT
TORSDOF 0
ENDMDL
MODEL 13
REMARK VINA RESULT:      -2.3      9.472      9.772
REMARK  0 active torsions:
REMARK  status: ('A' for Active; 'I' for Inactive)
ROOT
HETATM    1  C   LIG     1      15.099  32.672  18.147  1.00  0.00     0.042 C 
HETATM    2  C   LIG     1      14.851  33.257  16.760  1.00  0.00     0.141 A 
HETATM    3  C   LIG     1      15.944  33.107  15.773  1.00  0.00     0.199 A 
HETATM    4  O   LIG     1      15.735  34.314  16.471  1.00  0.00    -0.382 OA
ENDROOT
TORSDOF 0
ENDMDL
MODEL 14
REMARK VINA RESULT:      -2.3     13.358     13.621
REMARK  0 active torsions:
REMARK  status: ('A' for Active; 'I' for Inactive)
ROOT
HETATM    1  C   LIG     1      13.938  30.686  15.667  1.00  0.00     0.042 C 
HETATM    2  C   LIG     1      14.050  29.863  14.388  1.00  0.00     0.141 A 
HETATM    3  C   LIG     1      15.357  29.221  14.127  1.00  0.00     0.199 A 
HETATM    4  O   LIG     1      14.978  30.419  13.487  1.00  0.00    -0.382 OA
ENDROOT
TORSDOF 0
ENDMDL
MODEL 15
REMARK VINA RESULT:      -2.2     11.358     11.739
REMARK  0 active torsions:
REMARK  status: ('A' for Active; 'I' for Inactive)
ROOT
HETATM    1  C   LIG     1      15.642  31.445  14.487  1.00  0.00     0.042 C 
HETATM    2  C   LIG     1      16.373  32.555  15.236  1.00  0.00     0.141 A 
HETATM    3  C   LIG     1      17.400  33.301  14.476  1.00  0.00     0.199 A 
HETATM    4  O   LIG     1      17.745  32.275  15.379  1.00  0.00    -0.382 OA
ENDROOT
TORSDOF 0
ENDMDL
MODEL 16
REMARK VINA RESULT:      -2.2      4.744      5.171
REMARK  0 active torsions:
REMARK  status: ('A' for Active; 'I' for Inactive)
ROOT
HETATM    1  C   LIG     1      18.324  36.664  20.219  1.00  0.00     0.042 C 
HETATM    2  C   LIG     1      17.004  36.272  20.876  1.00  0.00     0.141 A 
HETATM    3  C   LIG     1      17.043  35.119  21.803  1.00  0.00     0.199 A 
HETATM    4  O   LIG     1      16.580  34.991  20.477  1.00  0.00    -0.382 OA
ENDROOT
TORSDOF 0
ENDMDL
MODEL 17
REMARK VINA RESULT:      -2.2      2.517      2.897
REMARK  0 active torsions:
REMARK  status: ('A' for Active; 'I' for Inactive)
ROOT
HETATM    1  C   LIG     1      16.902  35.855  22.094  1.00  0.00     0.042 C 
HETATM    2  C   LIG     1      16.278  37.152  22.597  1.00  0.00     0.141 A 
HETATM    3  C   LIG     1      17.214  38.211  23.035  1.00  0.00     0.199 A 
HETATM    4  O   LIG     1      16.556  37.373  23.959  1.00  0.00    -0.382 OA
ENDROOT
TORSDOF 0
ENDMDL
MODEL 18
REMARK VINA RESULT:      -2.2      4.682      5.054
REMARK  0 active torsions:
REMARK  status: ('A' for Active; 'I' for Inactive)
ROOT
HETATM    1  C   LIG     1      15.702  34.011  20.551  1.00  0.00     0.042 C 
HETATM    2  C   LIG     1      15.989  35.168  21.503  1.00  0.00     0.141 A 
HETATM    3  C   LIG     1      17.149  36.025  21.172  1.00  0.00     0.199 A 
HETATM    4  O   LIG     1      17.228  35.015  22.154  1.00  0.00    -0.382 OA
ENDROOT
TORSDOF 0
ENDMDL
MODEL 19
REMARK VINA RESULT:      -2.2      4.103      4.530
REMARK  0 active torsions:
REMARK  status: ('A' for Active; 'I' for Inactive)
ROOT
HETATM    1  C   LIG     1      17.462  36.154  20.841  1.00  0.00     0.042 C 
HETATM    2  C   LIG     1      16.385  35.714  21.828  1.00  0.00     0.141 A 
HETATM    3  C   LIG     1      14.993  35.698  21.325  1.00  0.00     0.199 A 
HETATM    4  O   LIG     1      15.484  36.756  22.119  1.00  0.00    -0.382 OA
ENDROOT
TORSDOF 0
ENDMDL
MODEL 20
REMARK VINA RESULT:      -2.1     17.761     17.821
REMARK  0 active torsions:
REMARK  status: ('A' for Active; 'I' for Inactive)
ROOT
HETATM    1  C   LIG     1       4.167  44.168  15.321  1.00  0.00     0.042 C 
HETATM    2  C   LIG     1       3.239  43.094  15.880  1.00  0.00     0.141 A 
HETATM    3  C   LIG     1       2.560  43.405  17.158  1.00  0.00     0.199 A 
HETATM    4  O   LIG     1       3.706  42.584  17.106  1.00  0.00    -0.382 OA
ENDROOT
TORSDOF 0
ENDMDL
