MODEL 1
REMARK VINA RESULT:      -4.3      0.000      0.000
REMARK  2 active torsions:
REMARK  status: ('A' for Active; 'I' for Inactive)
REMARK    1  A    between atoms: C_2  and  C_3 
REMARK    2  A    between atoms: C_3  and  O_5 
ROOT
HETATM    1  C   LIG     1      16.767  37.822  23.799  1.00  0.00     0.050 C 
HETATM    2  C   LIG     1      17.491  38.692  22.746  1.00  0.00     0.045 C 
HETATM    3  C   LIG     1      17.000  36.343  23.449  1.00  0.00     0.045 C 
ENDROOT
BRANCH   1   4
HETATM    4  C   LIG     1      17.314  38.080  25.231  1.00  0.00     0.032 C 
HETATM    5  C   LIG     1      18.174  36.949  25.801  1.00  0.00     0.008 C 
ENDBRANCH   1   4
BRANCH   1   6
HETATM    6  O   LIG     1      15.375  38.049  23.761  1.00  0.00    -0.391 OA
HETATM    7  H   LIG     1      14.913  37.234  24.089  1.00  0.00     0.210 HD
ENDBRANCH   1   6
TORSDOF 2
ENDMDL
MODEL 2
REMARK VINA RESULT:      -4.3      5.000      5.790
REMARK  2 active torsions:
REMARK  status: ('A' for Active; 'I' for Inactive)
REMARK    1  A    between atoms: C_2  and  C_3 
REMARK    2  A    between atoms: C_3  and  O_5 
ROOT
HETATM    1  C   LIG     1      19.533  38.815  19.210  1.00  0.00     0.050 C 
HETATM    2  C   LIG     1      18.733  39.182  17.939  1.00  0.00     0.045 C 
HETATM    3  C   LIG     1      18.861  39.490  20.417  1.00  0.00     0.045 C 
ENDROOT
BRANCH   1   4
HETATM    4  C   LIG     1      19.552  37.280  19.453  1.00  0.00     0.032 C 
HETATM    5  C   LIG     1      18.308  36.728  20.154  1.00  0.00     0.008 C 
ENDBRANCH   1   4
BRANCH   1   6
HETATM    6  O   LIG     1      20.850  39.312  19.131  1.00  0.00    -0.391 OA
HETATM    7  H   LIG     1      20.821  40.301  19.221  1.00  0.00     0.210 HD
ENDBRANCH   1   6
TORSDOF 2
ENDMDL
MODEL 3
REMARK VINA RESULT:      -4.3      4.460      5.589
REMARK  2 active torsions:
REMARK  status: ('A' for Active; 'I' for Inactive)
REMARK    1  A    between atoms: C_2  and  C_3 
REMARK    2  A    between atoms: C_3  and  O_5 
ROOT
HETATM    1  C   LIG     1      19.502  38.817  19.286  1.00  0.00     0.050 C 
HETATM    2  C   LIG     1      19.461  37.282  19.469  1.00  0.00     0.045 C 
HETATM    3  C   LIG     1      18.761  39.169  17.986  1.00  0.00     0.045 C 
ENDROOT
BRANCH   1   4
HETATM    4  C   LIG     1      18.804  39.554  20.464  1.00  0.00     0.032 C 
HETATM    5  C   LIG     1      18.148  38.633  21.496  1.00  0.00     0.008 C 
ENDBRANCH   1   4
BRANCH   1   6
HETATM    6  O   LIG     1      20.831  39.267  19.148  1.00  0.00    -0.391 OA
HETATM    7  H   LIG     1      21.385  38.834  19.848  1.00  0.00     0.210 HD
ENDBRANCH   1   6
TORSDOF 2
ENDMDL
MODEL 4
REMARK VINA RESULT:      -4.3      0.773      2.552
REMARK  2 active torsions:
REMARK  status: ('A' for Active; 'I' for Inactive)
REMARK    1  A    between atoms: C_2  and  C_3 
REMARK    2  A    between atoms: C_3  and  O_5 
ROOT
HETATM    1  C   LIG     1      16.559  37.840  23.493  1.00  0.00     0.050 C 
HETATM    2  C   LIG     1      16.846  36.458  22.863  1.00  0.00     0.045 C 
HETATM    3  C   LIG     1      17.169  37.865  24.904  1.00  0.00     0.045 C 
ENDROOT
BRANCH   1   4
HETATM    4  C   LIG     1      17.193  38.992  22.664  1.00  0.00     0.032 C 
HETATM    5  C   LIG     1      17.994  38.535  21.442  1.00  0.00     0.008 C 
ENDBRANCH   1   4
BRANCH   1   6
HETATM    6  O   LIG     1      15.170  38.046  23.632  1.00  0.00    -0.391 OA
HETATM    7  H   LIG     1      14.714  37.166  23.578  1.00  0.00     0.210 HD
ENDBRANCH   1   6
TORSDOF 2
ENDMDL
MODEL 5
REMARK VINA RESULT:      -4.2      0.981      2.497
REMARK  2 active torsions:
REMARK  status: ('A' for Active; 'I' for Inactive)
REMARK    1  A    between atoms: C_2  and  C_3 
REMARK    2  A    between atoms: C_3  and  O_5 
ROOT
HETATM    1  C   LIG     1      16.429  37.769  23.282  1.00  0.00     0.050 C 
HETATM    2  C   LIG     1      17.149  37.481  24.620  1.00  0.00     0.045 C 
HETATM    3  C   LIG     1      17.074  39.010  22.643  1.00  0.00     0.045 C 
ENDROOT
BRANCH   1   4
HETATM    4  C   LIG     1      16.563  36.580  22.290  1.00  0.00     0.032 C 
HETATM    5  C   LIG     1      16.970  35.252  22.934  1.00  0.00     0.008 C 
ENDBRANCH   1   4
BRANCH   1   6
HETATM    6  O   LIG     1      15.069  38.069  23.503  1.00  0.00    -0.391 OA
HETATM    7  H   LIG     1      15.012  38.832  24.135  1.00  0.00     0.210 HD
ENDBRANCH   1   6
TORSDOF 2
ENDMDL
MODEL 6
REMARK VINA RESULT:      -4.1      1.510      1.873
REMARK  2 active torsions:
REMARK  status: ('A' for Active; 'I' for Inactive)
REMARK    1  A    between atoms: C_2  and  C_3 
REMARK    2  A    between atoms: C_3  and  O_5 
ROOT
HETATM    1  C   LIG     1      17.725  37.313  25.108  1.00  0.00     0.050 C 
HETATM    2  C   LIG     1      18.687  38.170  24.253  1.00  0.00     0.045 C 
HETATM    3  C   LIG     1      17.087  36.249  24.199  1.00  0.00     0.045 C 
ENDROOT
BRANCH   1   4
HETATM    4  C   LIG     1      18.474  36.589  26.261  1.00  0.00     0.032 C 
HETATM    5  C   LIG     1      18.252  35.075  26.317  1.00  0.00     0.008 C 
ENDBRANCH   1   4
BRANCH   1   6
HETATM    6  O   LIG     1      16.680  38.105  25.626  1.00  0.00    -0.391 OA
HETATM    7  H   LIG     1      16.725  39.003  25.206  1.00  0.00     0.210 HD
ENDBRANCH   1   6
TORSDOF 2
ENDMDL
MODEL 7
REMARK VINA RESULT:      -3.9      1.586      2.659
REMARK  2 active torsions:
REMARK  status: ('A' for Active; 'I' for Inactive)
REMARK    1  A    between atoms: C_2  and  C_3 
REMARK    2  A    between atoms: C_3  and  O_5 
ROOT
HETATM    1  C   LIG     1      17.740  37.405  25.171  1.00  0.00     0.050 C 
HETATM    2  C   LIG     1      18.652  36.918  26.321  1.00  0.00     0.045 C 
HETATM    3  C   LIG     1      18.590  38.245  24.203  1.00  0.00     0.045 C 
ENDROOT
BRANCH   1   4
HETATM    4  C   LIG     1      17.128  36.214  24.381  1.00  0.00     0.032 C 
HETATM    5  C   LIG     1      17.329  34.844  25.032  1.00  0.00     0.008 C 
ENDBRANCH   1   4
BRANCH   1   6
HETATM    6  O   LIG     1      16.717  38.240  25.665  1.00  0.00    -0.391 OA
HETATM    7  H   LIG     1      17.135  38.992  26.160  1.00  0.00     0.210 HD
ENDBRANCH   1   6
TORSDOF 2
ENDMDL
MODEL 8
REMARK VINA RESULT:      -3.6      8.357      9.667
REMARK  2 active torsions:
REMARK  status: ('A' for Active; 'I' for Inactive)
REMARK    1  A    between atoms: C_2  and  C_3 
REMARK    2  A    between atoms: C_3  and  O_5 
ROOT
HETATM    1  C   LIG     1      14.453  32.720  17.120  1.00  0.00     0.050 C 
HETATM    2  C   LIG     1      15.110  32.409  18.485  1.00  0.00     0.045 C 
HETATM    3  C   LIG     1      15.464  32.389  16.010  1.00  0.00     0.045 C 
ENDROOT
BRANCH   1   4
HETATM    4  C   LIG     1      13.175  31.865  16.890  1.00  0.00     0.032 C 
HETATM    5  C   LIG     1      13.352  30.697  15.918  1.00  0.00     0.008 C 
ENDBRANCH   1   4
BRANCH   1   6
HETATM    6  O   LIG     1      14.148  34.092  17.015  1.00  0.00    -0.391 OA
HETATM    7  H   LIG     1      14.683  34.587  17.689  1.00  0.00     0.210 HD
ENDBRANCH   1   6
TORSDOF 2
ENDMDL
MODEL 9
REMARK VINA RESULT:      -3.6      2.539      3.333
REMARK  2 active torsions:
REMARK  status: ('A' for Active; 'I' for Inactive)
REMARK    1  A    between atoms: C_2  and  C_3 
REMARK    2  A    between atoms: C_3  and  O_5 
ROOT
HETATM    1  C   LIG     1      16.448  36.131  21.930  1.00  0.00     0.050 C 
HETATM    2  C   LIG     1      15.121  35.642  21.307  1.00  0.00     0.045 C 
HETATM    3  C   LIG     1      17.501  36.230  20.813  1.00  0.00     0.045 C 
ENDROOT
BRANCH   1   4
HETATM    4  C   LIG     1      16.293  37.534  22.583  1.00  0.00     0.032 C 
HETATM    5  C   LIG     1      17.362  38.551  22.176  1.00  0.00     0.008 C 
ENDBRANCH   1   4
BRANCH   1   6
HETATM    6  O   LIG     1      16.926  35.203  22.877  1.00  0.00    -0.391 OA
HETATM    7  H   LIG     1      17.908  35.111  22.762  1.00  0.00     0.210 HD
ENDBRANCH   1   6
TORSDOF 2
ENDMDL
MODEL 10
REMARK VINA RESULT:      -3.5      1.613      2.162
REMARK  2 active torsions:
REMARK  status: ('A' for Active; 'I' for Inactive)
REMARK    1  A    between atoms: C_2  and  C_3 
REMARK    2  A    between atoms: C_3  and  O_5 
ROOT
HETATM    1  C   LIG     1      16.892  37.034  22.942  1.00  0.00     0.050 C 
HETATM    2  C   LIG     1      16.868  35.688  22.182  1.00  0.00     0.045 C 
HETATM    3  C   LIG     1      15.500  37.678  22.830  1.00  0.00     0.045 C 
ENDROOT
BRANCH   1   4
HETATM    4  C   LIG     1      17.222  36.837  24.448  1.00  0.00     0.032 C 
HETATM    5  C   LIG     1      17.338  38.133  25.253  1.00  0.00     0.008 C 
ENDBRANCH   1   4
BRANCH   1   6
HETATM    6  O   LIG     1      17.815  37.923  22.353  1.00  0.00    -0.391 OA
HETATM    7  H   LIG     1      17.558  38.062  21.404  1.00  0.00     0.210 HD
ENDBRANCH   1   6
TORSDOF 2
ENDMDL
MODEL 11
REMARK VINA RESULT:      -3.5      1.703      2.926
REMARK  2 active torsions:
REMARK  status: ('A' for Active; 'I' for Inactive)
REMARK    1  A    between atoms: C_2  and  C_3 
REMARK    2  A    between atoms: C_3  and  O_5 
ROOT
HETATM    1  C   LIG     1      17.016  37.433  22.905  1.00  0.00     0.050 C 
HETATM    2  C   LIG     1      17.645  38.107  24.146  1.00  0.00     0.045 C 
HETATM    3  C   LIG     1      15.534  37.839  22.832  1.00  0.00     0.045 C 
ENDROOT
BRANCH   1   4
HETATM    4  C   LIG     1      17.713  37.885  21.591  1.00  0.00     0.032 C 
HETATM    5  C   LIG     1      18.417  39.241  21.674  1.00  0.00     0.008 C 
ENDBRANCH   1   4
BRANCH   1   6
HETATM    6  O   LIG     1      17.061  36.029  23.023  1.00  0.00    -0.391 OA
HETATM    7  H   LIG     1      18.009  35.750  23.119  1.00  0.00     0.210 HD
ENDBRANCH   1   6
TORSDOF 2
ENDMDL
MODEL 12
REMARK VINA RESULT:      -3.5      7.932      8.753
REMARK  2 active torsions:
REMARK  status: ('A' for Active; 'I' for Inactive)
REMARK    1  A    between atoms: C_2  and  C_3 
REMARK    2  A    between atoms: C_3  and  O_5 
ROOT
HETATM    1  C   LIG     1      14.680  32.619  17.197  1.00  0.00     0.050 C 
HETATM    2  C   LIG     1      15.764  32.538  16.097  1.00  0.00     0.045 C 
HETATM    3  C   LIG     1      13.759  31.395  17.059  1.00  0.00     0.045 C 
ENDROOT
BRANCH   1   4
HETATM    4  C   LIG     1      15.304  32.606  18.620  1.00  0.00     0.032 C 
HETATM    5  C   LIG     1      14.750  31.527  19.553  1.00  0.00     0.008 C 
ENDBRANCH   1   4
BRANCH   1   6
HETATM    6  O   LIG     1      13.881  33.768  17.024  1.00  0.00    -0.391 OA
HETATM    7  H   LIG     1      12.958  33.480  16.800  1.00  0.00     0.210 HD
ENDBRANCH   1   6
TORSDOF 2
ENDMDL
MODEL 13
REMARK VINA RESULT:      -3.5      1.641      2.388
REMARK  2 active torsions:
REMARK  status: ('A' for Active; 'I' for Inactive)
REMARK    1  A    between atoms: C_2  and  C_3 
REMARK    2  A    between atoms: C_3  and  O_5 
ROOT
HETATM    1  C   LIG     1      16.860  37.191  23.123  1.00  0.00     0.050 C 
HETATM    2  C   LIG     1      15.419  37.637  22.786  1.00  0.00     0.045 C 
HETATM    3  C   LIG     1      17.213  37.716  24.525  1.00  0.00     0.045 C 
ENDROOT
BRANCH   1   4
HETATM    4  C   LIG     1      16.994  35.643  23.131  1.00  0.00     0.032 C 
HETATM    5  C   LIG     1      17.288  35.032  24.503  1.00  0.00     0.008 C 
ENDBRANCH   1   4
BRANCH   1   6
HETATM    6  O   LIG     1      17.782  37.756  22.218  1.00  0.00    -0.391 OA
HETATM    7  H   LIG     1      18.648  37.880  22.686  1.00  0.00     0.210 HD
ENDBRANCH   1   6
TORSDOF 2
ENDMDL
MODEL 14
REMARK VINA RESULT:      -3.5      2.107      2.915
REMARK  2 active torsions:
REMARK  status: ('A' for Active; 'I' for Inactive)
REMARK    1  A    between atoms: C_2  and  C_3 
REMARK    2  A    between atoms: C_3  and  O_5 
ROOT
HETATM    1  C   LIG     1      16.953  37.223  22.810  1.00  0.00     0.050 C 
HETATM    2  C   LIG     1      17.697  37.839  21.602  1.00  0.00     0.045 C 
HETATM    3  C   LIG     1      15.509  37.751  22.810  1.00  0.00     0.045 C 
ENDROOT
BRANCH   1   4
HETATM    4  C   LIG     1      16.910  35.672  22.727  1.00  0.00     0.032 C 
HETATM    5  C   LIG     1      16.645  35.113  21.327  1.00  0.00     0.008 C 
ENDBRANCH   1   4
BRANCH   1   6
HETATM    6  O   LIG     1      17.549  37.631  24.022  1.00  0.00    -0.391 OA
HETATM    7  H   LIG     1      16.880  37.538  24.749  1.00  0.00     0.210 HD
ENDBRANCH   1   6
TORSDOF 2
ENDMDL
MODEL 15
REMARK VINA RESULT:      -3.4      8.468      9.792
REMARK  2 active torsions:
REMARK  status: ('A' for Active; 'I' for Inactive)
REMARK    1  A    between atoms: C_2  and  C_3 
REMARK    2  A    between atoms: C_3  and  O_5 
ROOT
HETATM    1  C   LIG     1      14.377  32.627  17.010  1.00  0.00     0.050 C 
HETATM    2  C   LIG     1      13.064  31.828  16.843  1.00  0.00     0.045 C 
HETATM    3  C   LIG     1      14.983  32.282  18.381  1.00  0.00     0.045 C 
ENDROOT
BRANCH   1   4
HETATM    4  C   LIG     1      15.413  32.263  15.910  1.00  0.00     0.032 C 
HETATM    5  C   LIG     1      15.003  31.100  15.003  1.00  0.00     0.008 C 
ENDBRANCH   1   4
BRANCH   1   6
HETATM    6  O   LIG     1      14.122  34.014  17.000  1.00  0.00    -0.391 OA
HETATM    7  H   LIG     1      13.448  34.206  16.296  1.00  0.00     0.210 HD
ENDBRANCH   1   6
TORSDOF 2
ENDMDL
MODEL 16
REMARK VINA RESULT:      -3.4     12.674     13.477
REMARK  2 active torsions:
REMARK  status: ('A' for Active; 'I' for Inactive)
REMARK    1  A    between atoms: C_2  and  C_3 
REMARK    2  A    between atoms: C_3  and  O_5 
ROOT
HETATM    1  C   LIG     1      19.650  33.446  11.485  1.00  0.00     0.050 C 
HETATM    2  C   LIG     1      19.243  34.527  10.457  1.00  0.00     0.045 C 
HETATM    3  C   LIG     1      20.743  32.567  10.855  1.00  0.00     0.045 C 
ENDROOT
BRANCH   1   4
HETATM    4  C   LIG     1      20.218  34.078  12.787  1.00  0.00     0.032 C 
HETATM    5  C   LIG     1      21.671  34.550  12.688  1.00  0.00     0.008 C 
ENDBRANCH   1   4
BRANCH   1   6
HETATM    6  O   LIG     1      18.558  32.608  11.786  1.00  0.00    -0.391 OA
HETATM    7  H   LIG     1      18.867  31.665  11.759  1.00  0.00     0.210 HD
ENDBRANCH   1   6
TORSDOF 2
ENDMDL
MODEL 17
REMARK VINA RESULT:      -3.3      9.852     10.970
REMARK  2 active torsions:
REMARK  status: ('A' for Active; 'I' for Inactive)
REMARK    1  A    between atoms: C_2  and  C_3 
REMARK    2  A    between atoms: C_3  and  O_5 
ROOT
HETATM    1  C   LIG     1      13.715  31.391  16.578  1.00  0.00     0.050 C 
HETATM    2  C   LIG     1      14.989  32.235  16.344  1.00  0.00     0.045 C 
HETATM    3  C   LIG     1      12.509  32.344  16.643  1.00  0.00     0.045 C 
ENDROOT
BRANCH   1   4
HETATM    4  C   LIG     1      13.477  30.377  15.425  1.00  0.00     0.032 C 
HETATM    5  C   LIG     1      14.681  30.162  14.504  1.00  0.00     0.008 C 
ENDBRANCH   1   4
BRANCH   1   6
HETATM    6  O   LIG     1      13.784  30.717  17.815  1.00  0.00    -0.391 OA
HETATM    7  H   LIG     1      14.265  29.859  17.680  1.00  0.00     0.210 HD
ENDBRANCH   1   6
TORSDOF 2
ENDMDL
MODEL 18
REMARK VINA RESULT:      -3.2     13.219     14.173
REMARK  2 active torsions:
REMARK  status: ('A' for Active; 'I' for Inactive)
REMARK    1  A    between atoms: C_2  and  C_3 
REMARK    2  A    between atoms: C_3  and  O_5 
ROOT
HETATM    1  C   LIG     1      19.469  33.407  11.356  1.00  0.00     0.050 C 
HETATM    2  C   LIG     1      20.633  33.682  12.335  1.00  0.00     0.045 C 
HETATM    3  C   LIG     1      18.896  34.757  10.894  1.00  0.00     0.045 C 
ENDROOT
BRANCH   1   4
HETATM    4  C   LIG     1      19.947  32.621  10.103  1.00  0.00     0.032 C 
HETATM    5  C   LIG     1      20.923  31.480  10.397  1.00  0.00     0.008 C 
ENDBRANCH   1   4
BRANCH   1   6
HETATM    6  O   LIG     1      18.428  32.708  12.002  1.00  0.00    -0.391 OA
HETATM    7  H   LIG     1      18.318  31.826  11.560  1.00  0.00     0.210 HD
ENDBRANCH   1   6
TORSDOF 2
ENDMDL
MODEL 19
REMARK VINA RESULT:      -3.1      9.232     10.097
REMARK  2 active torsions:
REMARK  status: ('A' for Active; 'I' for Inactive)
REMARK    1  A    between atoms: C_2  and  C_3 
REMARK    2  A    between atoms: C_3  and  O_5 
ROOT
HETATM    1  C   LIG     1      13.846  31.714  16.846  1.00  0.00     0.050 C 
HETATM    2  C   LIG     1      12.408  32.250  16.658  1.00  0.00     0.045 C 
HETATM    3  C   LIG     1      14.147  30.725  15.708  1.00  0.00     0.045 C 
ENDROOT
BRANCH   1   4
HETATM    4  C   LIG     1      14.896  32.859  16.793  1.00  0.00     0.032 C 
HETATM    5  C   LIG     1      15.954  32.707  15.697  1.00  0.00     0.008 C 
ENDBRANCH   1   4
BRANCH   1   6
HETATM    6  O   LIG     1      13.959  31.005  18.060  1.00  0.00    -0.391 OA
HETATM    7  H   LIG     1      13.491  31.517  18.769  1.00  0.00     0.210 HD
ENDBRANCH   1   6
TORSDOF 2
ENDMDL
MODEL 20
REMARK VINA RESULT:      -3.1     11.763     12.595
REMARK  2 active torsions:
REMARK  status: ('A' for Active; 'I' for Inactive)
REMARK    1  A    between atoms: C_2  and  C_3 
REMARK    2  A    between atoms: C_3  and  O_5 
ROOT
HETATM    1  C   LIG     1      18.916  33.788  12.010  1.00  0.00     0.050 C 
HETATM    2  C   LIG     1      18.903  34.774  10.819  1.00  0.00     0.045 C 
HETATM    3  C   LIG     1      20.283  33.889  12.706  1.00  0.00     0.045 C 
ENDROOT
BRANCH   1   4
HETATM    4  C   LIG     1      17.810  34.128  13.048  1.00  0.00     0.032 C 
HETATM    5  C   LIG     1      17.894  33.336  14.355  1.00  0.00     0.008 C 
ENDBRANCH   1   4
BRANCH   1   6
HETATM    6  O   LIG     1      18.771  32.460  11.560  1.00  0.00    -0.391 OA
HETATM    7  H   LIG     1      18.775  31.857  12.348  1.00  0.00     0.210 HD
ENDBRANCH   1   6
TORSDOF 2
ENDMDL
