MODEL 1
REMARK VINA RESULT:      -4.0      0.000      0.000
REMARK  2 active torsions:
REMARK  status: ('A' for Active; 'I' for Inactive)
REMARK    1  A    between atoms: C_2  and  C_5 
REMARK    2  A    between atoms: C_5  and  O_6 
ROOT
HETATM    1  C   LIG     1      17.511  36.335  20.830  1.00  0.00     0.016 C 
HETATM    2  C   LIG     1      16.507  36.280  21.997  1.00  0.00    -0.030 C 
HETATM    3  C   LIG     1      16.978  35.223  23.017  1.00  0.00     0.016 C 
HETATM    4  C   LIG     1      15.121  35.886  21.451  1.00  0.00     0.016 C 
ENDROOT
BRANCH   2   5
HETATM    5  C   LIG     1      16.437  37.672  22.669  1.00  0.00     0.172 C 
BRANCH   5   6
HETATM    6  O   LIG     1      15.115  38.000  23.003  1.00  0.00    -0.400 OA
HETATM    7  H   LIG     1      15.054  38.989  22.950  1.00  0.00     0.209 HD
ENDBRANCH   5   6
ENDBRANCH   2   5
TORSDOF 2
ENDMDL
MODEL 2
REMARK VINA RESULT:      -4.0      0.036      1.779
REMARK  2 active torsions:
REMARK  status: ('A' for Active; 'I' for Inactive)
REMARK    1  A    between atoms: C_2  and  C_5 
REMARK    2  A    between atoms: C_5  and  O_6 
ROOT
HETATM    1  C   LIG     1      16.953  35.203  22.986  1.00  0.00     0.016 C 
HETATM    2  C   LIG     1      16.499  36.263  21.965  1.00  0.00    -0.030 C 
HETATM    3  C   LIG     1      15.103  35.882  21.430  1.00  0.00     0.016 C 
HETATM    4  C   LIG     1      17.505  36.303  20.798  1.00  0.00     0.016 C 
ENDROOT
BRANCH   2   5
HETATM    5  C   LIG     1      16.441  37.643  22.663  1.00  0.00     0.172 C 
BRANCH   5   6
HETATM    6  O   LIG     1      15.120  37.981  22.993  1.00  0.00    -0.400 OA
HETATM    7  H   LIG     1      15.121  38.956  23.177  1.00  0.00     0.209 HD
ENDBRANCH   5   6
ENDBRANCH   2   5
TORSDOF 2
ENDMDL
MODEL 3
REMARK VINA RESULT:      -4.0      4.578      5.381
REMARK  2 active torsions:
REMARK  status: ('A' for Active; 'I' for Inactive)
REMARK    1  A    between atoms: C_2  and  C_5 
REMARK    2  A    between atoms: C_5  and  O_6 
ROOT
HETATM    1  C   LIG     1      18.827  37.036  19.366  1.00  0.00     0.016 C 
HETATM    2  C   LIG     1      19.261  38.514  19.341  1.00  0.00    -0.030 C 
HETATM    3  C   LIG     1      20.798  38.590  19.459  1.00  0.00     0.016 C 
HETATM    4  C   LIG     1      18.616  39.249  20.532  1.00  0.00     0.016 C 
ENDROOT
BRANCH   2   5
HETATM    5  C   LIG     1      18.800  39.153  18.009  1.00  0.00     0.172 C 
BRANCH   5   6
HETATM    6  O   LIG     1      19.852  39.854  17.400  1.00  0.00    -0.400 OA
HETATM    7  H   LIG     1      19.457  40.322  16.619  1.00  0.00     0.209 HD
ENDBRANCH   5   6
ENDBRANCH   2   5
TORSDOF 2
ENDMDL
MODEL 4
REMARK VINA RESULT:      -3.9      3.861      4.584
REMARK  2 active torsions:
REMARK  status: ('A' for Active; 'I' for Inactive)
REMARK    1  A    between atoms: C_2  and  C_5 
REMARK    2  A    between atoms: C_5  and  O_6 
ROOT
HETATM    1  C   LIG     1      20.766  38.604  19.477  1.00  0.00     0.016 C 
HETATM    2  C   LIG     1      19.234  38.496  19.359  1.00  0.00    -0.030 C 
HETATM    3  C   LIG     1      18.827  37.009  19.423  1.00  0.00     0.016 C 
HETATM    4  C   LIG     1      18.789  39.094  18.010  1.00  0.00     0.016 C 
ENDROOT
BRANCH   2   5
HETATM    5  C   LIG     1      18.581  39.275  20.527  1.00  0.00     0.172 C 
BRANCH   5   6
HETATM    6  O   LIG     1      19.440  39.327  21.635  1.00  0.00    -0.400 OA
HETATM    7  H   LIG     1      19.660  38.385  21.857  1.00  0.00     0.209 HD
ENDBRANCH   5   6
ENDBRANCH   2   5
TORSDOF 2
ENDMDL
MODEL 5
REMARK VINA RESULT:      -3.9      1.341      2.308
REMARK  2 active torsions:
REMARK  status: ('A' for Active; 'I' for Inactive)
REMARK    1  A    between atoms: C_2  and  C_5 
REMARK    2  A    between atoms: C_5  and  O_6 
ROOT
HETATM    1  C   LIG     1      15.847  37.224  22.440  1.00  0.00     0.016 C 
HETATM    2  C   LIG     1      16.474  35.914  21.928  1.00  0.00    -0.030 C 
HETATM    3  C   LIG     1      17.087  35.150  23.120  1.00  0.00     0.016 C 
HETATM    4  C   LIG     1      17.579  36.248  20.908  1.00  0.00     0.016 C 
ENDROOT
BRANCH   2   5
HETATM    5  C   LIG     1      15.374  35.056  21.258  1.00  0.00     0.172 C 
BRANCH   5   6
HETATM    6  O   LIG     1      14.163  35.760  21.189  1.00  0.00    -0.400 OA
HETATM    7  H   LIG     1      14.397  36.685  20.916  1.00  0.00     0.209 HD
ENDBRANCH   5   6
ENDBRANCH   2   5
TORSDOF 2
ENDMDL
MODEL 6
REMARK VINA RESULT:      -3.9      1.346      2.321
REMARK  2 active torsions:
REMARK  status: ('A' for Active; 'I' for Inactive)
REMARK    1  A    between atoms: C_2  and  C_5 
REMARK    2  A    between atoms: C_5  and  O_6 
ROOT
HETATM    1  C   LIG     1      17.575  36.223  20.907  1.00  0.00     0.016 C 
HETATM    2  C   LIG     1      16.472  35.913  21.936  1.00  0.00    -0.030 C 
HETATM    3  C   LIG     1      15.864  37.239  22.437  1.00  0.00     0.016 C 
HETATM    4  C   LIG     1      17.090  35.149  23.123  1.00  0.00     0.016 C 
ENDROOT
BRANCH   2   5
HETATM    5  C   LIG     1      15.379  35.051  21.260  1.00  0.00     0.172 C 
BRANCH   5   6
HETATM    6  O   LIG     1      14.175  35.763  21.153  1.00  0.00    -0.400 OA
HETATM    7  H   LIG     1      13.941  36.049  22.074  1.00  0.00     0.209 HD
ENDBRANCH   5   6
ENDBRANCH   2   5
TORSDOF 2
ENDMDL
MODEL 7
REMARK VINA RESULT:      -3.8      4.301      4.981
REMARK  2 active torsions:
REMARK  status: ('A' for Active; 'I' for Inactive)
REMARK    1  A    between atoms: C_2  and  C_5 
REMARK    2  A    between atoms: C_5  and  O_6 
ROOT
HETATM    1  C   LIG     1      18.660  36.907  19.550  1.00  0.00     0.016 C 
HETATM    2  C   LIG     1      19.007  38.397  19.726  1.00  0.00    -0.030 C 
HETATM    3  C   LIG     1      18.385  38.907  21.043  1.00  0.00     0.016 C 
HETATM    4  C   LIG     1      18.428  39.194  18.541  1.00  0.00     0.016 C 
ENDROOT
BRANCH   2   5
HETATM    5  C   LIG     1      20.546  38.556  19.771  1.00  0.00     0.172 C 
BRANCH   5   6
HETATM    6  O   LIG     1      20.975  39.533  18.861  1.00  0.00    -0.400 OA
HETATM    7  H   LIG     1      20.658  40.403  19.220  1.00  0.00     0.209 HD
ENDBRANCH   5   6
ENDBRANCH   2   5
TORSDOF 2
ENDMDL
MODEL 8
REMARK VINA RESULT:      -3.7      1.467      2.635
REMARK  2 active torsions:
REMARK  status: ('A' for Active; 'I' for Inactive)
REMARK    1  A    between atoms: C_2  and  C_5 
REMARK    2  A    between atoms: C_5  and  O_6 
ROOT
HETATM    1  C   LIG     1      17.528  37.481  24.027  1.00  0.00     0.016 C 
HETATM    2  C   LIG     1      17.256  37.962  22.589  1.00  0.00    -0.030 C 
HETATM    3  C   LIG     1      17.319  36.753  21.633  1.00  0.00     0.016 C 
HETATM    4  C   LIG     1      18.332  38.990  22.190  1.00  0.00     0.016 C 
ENDROOT
BRANCH   2   5
HETATM    5  C   LIG     1      15.852  38.611  22.531  1.00  0.00     0.172 C 
BRANCH   5   6
HETATM    6  O   LIG     1      15.016  38.084  23.526  1.00  0.00    -0.400 OA
HETATM    7  H   LIG     1      14.907  38.801  24.203  1.00  0.00     0.209 HD
ENDBRANCH   5   6
ENDBRANCH   2   5
TORSDOF 2
ENDMDL
MODEL 9
REMARK VINA RESULT:      -3.7     11.482     12.534
REMARK  2 active torsions:
REMARK  status: ('A' for Active; 'I' for Inactive)
REMARK    1  A    between atoms: C_2  and  C_5 
REMARK    2  A    between atoms: C_5  and  O_6 
ROOT
HETATM    1  C   LIG     1      27.955  40.024  19.585  1.00  0.00     0.016 C 
HETATM    2  C   LIG     1      28.345  38.605  19.131  1.00  0.00    -0.030 C 
HETATM    3  C   LIG     1      29.103  37.900  20.276  1.00  0.00     0.016 C 
HETATM    4  C   LIG     1      29.260  38.705  17.895  1.00  0.00     0.016 C 
ENDROOT
BRANCH   2   5
HETATM    5  C   LIG     1      27.062  37.815  18.780  1.00  0.00     0.172 C 
BRANCH   5   6
HETATM    6  O   LIG     1      26.971  36.643  19.547  1.00  0.00    -0.400 OA
HETATM    7  H   LIG     1      26.335  36.843  20.283  1.00  0.00     0.209 HD
ENDBRANCH   5   6
ENDBRANCH   2   5
TORSDOF 2
ENDMDL
MODEL 10
REMARK VINA RESULT:      -3.6      1.842      2.750
REMARK  2 active torsions:
REMARK  status: ('A' for Active; 'I' for Inactive)
REMARK    1  A    between atoms: C_2  and  C_5 
REMARK    2  A    between atoms: C_5  and  O_6 
ROOT
HETATM    1  C   LIG     1      16.050  37.505  22.697  1.00  0.00     0.016 C 
HETATM    2  C   LIG     1      16.418  36.196  21.973  1.00  0.00    -0.030 C 
HETATM    3  C   LIG     1      15.156  35.623  21.296  1.00  0.00     0.016 C 
HETATM    4  C   LIG     1      16.954  35.184  23.004  1.00  0.00     0.016 C 
ENDROOT
BRANCH   2   5
HETATM    5  C   LIG     1      17.502  36.495  20.909  1.00  0.00     0.172 C 
BRANCH   5   6
HETATM    6  O   LIG     1      17.224  35.821  19.711  1.00  0.00    -0.400 OA
HETATM    7  H   LIG     1      16.798  34.963  19.969  1.00  0.00     0.209 HD
ENDBRANCH   5   6
ENDBRANCH   2   5
TORSDOF 2
ENDMDL
MODEL 11
REMARK VINA RESULT:      -3.6      1.940      2.775
REMARK  2 active torsions:
REMARK  status: ('A' for Active; 'I' for Inactive)
REMARK    1  A    between atoms: C_2  and  C_5 
REMARK    2  A    between atoms: C_5  and  O_6 
ROOT
HETATM    1  C   LIG     1      15.437  37.834  22.824  1.00  0.00     0.016 C 
HETATM    2  C   LIG     1      16.897  37.373  22.988  1.00  0.00    -0.030 C 
HETATM    3  C   LIG     1      17.825  38.378  22.274  1.00  0.00     0.016 C 
HETATM    4  C   LIG     1      17.061  35.979  22.350  1.00  0.00     0.016 C 
ENDROOT
BRANCH   2   5
HETATM    5  C   LIG     1      17.242  37.311  24.495  1.00  0.00     0.172 C 
BRANCH   5   6
HETATM    6  O   LIG     1      18.300  38.179  24.802  1.00  0.00    -0.400 OA
HETATM    7  H   LIG     1      19.133  37.650  24.691  1.00  0.00     0.209 HD
ENDBRANCH   5   6
ENDBRANCH   2   5
TORSDOF 2
ENDMDL
MODEL 12
REMARK VINA RESULT:      -3.6      1.830      2.476
REMARK  2 active torsions:
REMARK  status: ('A' for Active; 'I' for Inactive)
REMARK    1  A    between atoms: C_2  and  C_5 
REMARK    2  A    between atoms: C_5  and  O_6 
ROOT
HETATM    1  C   LIG     1      15.148  35.689  21.339  1.00  0.00     0.016 C 
HETATM    2  C   LIG     1      16.415  36.247  22.015  1.00  0.00    -0.030 C 
HETATM    3  C   LIG     1      16.960  35.198  23.007  1.00  0.00     0.016 C 
HETATM    4  C   LIG     1      16.053  37.536  22.777  1.00  0.00     0.016 C 
ENDROOT
BRANCH   2   5
HETATM    5  C   LIG     1      17.475  36.551  20.929  1.00  0.00     0.172 C 
BRANCH   5   6
HETATM    6  O   LIG     1      17.235  35.796  19.771  1.00  0.00    -0.400 OA
HETATM    7  H   LIG     1      18.117  35.675  19.333  1.00  0.00     0.209 HD
ENDBRANCH   5   6
ENDBRANCH   2   5
TORSDOF 2
ENDMDL
MODEL 13
REMARK VINA RESULT:      -3.6      3.701      4.751
REMARK  2 active torsions:
REMARK  status: ('A' for Active; 'I' for Inactive)
REMARK    1  A    between atoms: C_2  and  C_5 
REMARK    2  A    between atoms: C_5  and  O_6 
ROOT
HETATM    1  C   LIG     1      18.716  39.172  18.134  1.00  0.00     0.016 C 
HETATM    2  C   LIG     1      19.216  38.489  19.421  1.00  0.00    -0.030 C 
HETATM    3  C   LIG     1      18.602  39.204  20.642  1.00  0.00     0.016 C 
HETATM    4  C   LIG     1      20.753  38.593  19.482  1.00  0.00     0.016 C 
ENDROOT
BRANCH   2   5
HETATM    5  C   LIG     1      18.785  37.003  19.404  1.00  0.00     0.172 C 
BRANCH   5   6
HETATM    6  O   LIG     1      18.000  36.698  20.526  1.00  0.00    -0.400 OA
HETATM    7  H   LIG     1      17.055  36.775  20.231  1.00  0.00     0.209 HD
ENDBRANCH   5   6
ENDBRANCH   2   5
TORSDOF 2
ENDMDL
MODEL 14
REMARK VINA RESULT:      -3.5      1.983      2.184
REMARK  2 active torsions:
REMARK  status: ('A' for Active; 'I' for Inactive)
REMARK    1  A    between atoms: C_2  and  C_5 
REMARK    2  A    between atoms: C_5  and  O_6 
ROOT
HETATM    1  C   LIG     1      17.734  38.108  22.147  1.00  0.00     0.016 C 
HETATM    2  C   LIG     1      16.808  37.336  23.104  1.00  0.00    -0.030 C 
HETATM    3  C   LIG     1      17.010  35.821  22.888  1.00  0.00     0.016 C 
HETATM    4  C   LIG     1      15.344  37.708  22.799  1.00  0.00     0.016 C 
ENDROOT
BRANCH   2   5
HETATM    5  C   LIG     1      17.159  37.715  24.563  1.00  0.00     0.172 C 
BRANCH   5   6
HETATM    6  O   LIG     1      17.074  36.596  25.404  1.00  0.00    -0.400 OA
HETATM    7  H   LIG     1      17.912  36.586  25.936  1.00  0.00     0.209 HD
ENDBRANCH   5   6
ENDBRANCH   2   5
TORSDOF 2
ENDMDL
MODEL 15
REMARK VINA RESULT:      -3.5      2.083      2.881
REMARK  2 active torsions:
REMARK  status: ('A' for Active; 'I' for Inactive)
REMARK    1  A    between atoms: C_2  and  C_5 
REMARK    2  A    between atoms: C_5  and  O_6 
ROOT
HETATM    1  C   LIG     1      17.051  35.027  22.891  1.00  0.00     0.016 C 
HETATM    2  C   LIG     1      16.435  35.717  21.660  1.00  0.00    -0.030 C 
HETATM    3  C   LIG     1      17.570  36.221  20.744  1.00  0.00     0.016 C 
HETATM    4  C   LIG     1      15.581  36.913  22.127  1.00  0.00     0.016 C 
ENDROOT
BRANCH   2   5
HETATM    5  C   LIG     1      15.552  34.699  20.899  1.00  0.00     0.172 C 
BRANCH   5   6
HETATM    6  O   LIG     1      15.658  34.884  19.512  1.00  0.00    -0.400 OA
HETATM    7  H   LIG     1      14.883  35.446  19.248  1.00  0.00     0.209 HD
ENDBRANCH   5   6
ENDBRANCH   2   5
TORSDOF 2
ENDMDL
MODEL 16
REMARK VINA RESULT:      -3.5      3.455      4.273
REMARK  2 active torsions:
REMARK  status: ('A' for Active; 'I' for Inactive)
REMARK    1  A    between atoms: C_2  and  C_5 
REMARK    2  A    between atoms: C_5  and  O_6 
ROOT
HETATM    1  C   LIG     1      18.550  39.298  18.655  1.00  0.00     0.016 C 
HETATM    2  C   LIG     1      19.292  38.479  19.728  1.00  0.00    -0.030 C 
HETATM    3  C   LIG     1      20.809  38.546  19.453  1.00  0.00     0.016 C 
HETATM    4  C   LIG     1      18.821  37.013  19.658  1.00  0.00     0.016 C 
ENDROOT
BRANCH   2   5
HETATM    5  C   LIG     1      18.979  39.072  21.122  1.00  0.00     0.172 C 
BRANCH   5   6
HETATM    6  O   LIG     1      17.602  39.022  21.389  1.00  0.00    -0.400 OA
HETATM    7  H   LIG     1      17.257  39.938  21.226  1.00  0.00     0.209 HD
ENDBRANCH   5   6
ENDBRANCH   2   5
TORSDOF 2
ENDMDL
MODEL 17
REMARK VINA RESULT:      -3.4      2.286      2.949
REMARK  2 active torsions:
REMARK  status: ('A' for Active; 'I' for Inactive)
REMARK    1  A    between atoms: C_2  and  C_5 
REMARK    2  A    between atoms: C_5  and  O_6 
ROOT
HETATM    1  C   LIG     1      16.958  36.606  22.215  1.00  0.00     0.016 C 
HETATM    2  C   LIG     1      17.278  38.088  22.489  1.00  0.00    -0.030 C 
HETATM    3  C   LIG     1      17.965  38.210  23.865  1.00  0.00     0.016 C 
HETATM    4  C   LIG     1      15.964  38.893  22.497  1.00  0.00     0.016 C 
ENDROOT
BRANCH   2   5
HETATM    5  C   LIG     1      18.218  38.615  21.378  1.00  0.00     0.172 C 
BRANCH   5   6
HETATM    6  O   LIG     1      18.817  39.824  21.763  1.00  0.00    -0.400 OA
HETATM    7  H   LIG     1      18.680  39.900  22.743  1.00  0.00     0.209 HD
ENDBRANCH   5   6
ENDBRANCH   2   5
TORSDOF 2
ENDMDL
MODEL 18
REMARK VINA RESULT:      -3.4      5.959      6.762
REMARK  2 active torsions:
REMARK  status: ('A' for Active; 'I' for Inactive)
REMARK    1  A    between atoms: C_2  and  C_5 
REMARK    2  A    between atoms: C_5  and  O_6 
ROOT
HETATM    1  C   LIG     1      15.221  32.278  18.516  1.00  0.00     0.016 C 
HETATM    2  C   LIG     1      14.755  32.691  17.107  1.00  0.00    -0.030 C 
HETATM    3  C   LIG     1      13.320  32.173  16.880  1.00  0.00     0.016 C 
HETATM    4  C   LIG     1      15.700  32.066  16.061  1.00  0.00     0.016 C 
ENDROOT
BRANCH   2   5
HETATM    5  C   LIG     1      14.786  34.234  16.997  1.00  0.00     0.172 C 
BRANCH   5   6
HETATM    6  O   LIG     1      15.941  34.664  16.325  1.00  0.00    -0.400 OA
HETATM    7  H   LIG     1      15.976  34.147  15.478  1.00  0.00     0.209 HD
ENDBRANCH   5   6
ENDBRANCH   2   5
TORSDOF 2
ENDMDL
MODEL 19
REMARK VINA RESULT:      -3.3      5.942      6.817
REMARK  2 active torsions:
REMARK  status: ('A' for Active; 'I' for Inactive)
REMARK    1  A    between atoms: C_2  and  C_5 
REMARK    2  A    between atoms: C_5  and  O_6 
ROOT
HETATM    1  C   LIG     1      13.331  32.144  16.874  1.00  0.00     0.016 C 
HETATM    2  C   LIG     1      14.736  32.717  17.137  1.00  0.00    -0.030 C 
HETATM    3  C   LIG     1      14.682  34.255  17.026  1.00  0.00     0.016 C 
HETATM    4  C   LIG     1      15.714  32.160  16.084  1.00  0.00     0.016 C 
ENDROOT
BRANCH   2   5
HETATM    5  C   LIG     1      15.193  32.305  18.557  1.00  0.00     0.172 C 
BRANCH   5   6
HETATM    6  O   LIG     1      14.184  31.588  19.218  1.00  0.00    -0.400 OA
HETATM    7  H   LIG     1      13.570  31.261  18.511  1.00  0.00     0.209 HD
ENDBRANCH   5   6
ENDBRANCH   2   5
TORSDOF 2
ENDMDL
MODEL 20
REMARK VINA RESULT:      -3.3     11.109     11.926
REMARK  2 active torsions:
REMARK  status: ('A' for Active; 'I' for Inactive)
REMARK    1  A    between atoms: C_2  and  C_5 
REMARK    2  A    between atoms: C_5  and  O_6 
ROOT
HETATM    1  C   LIG     1      20.921  32.602  10.935  1.00  0.00     0.016 C 
HETATM    2  C   LIG     1      20.543  34.011  11.430  1.00  0.00    -0.030 C 
HETATM    3  C   LIG     1      20.764  35.022  10.286  1.00  0.00     0.016 C 
HETATM    4  C   LIG     1      21.442  34.383  12.626  1.00  0.00     0.016 C 
ENDROOT
BRANCH   2   5
HETATM    5  C   LIG     1      19.057  34.013  11.861  1.00  0.00     0.172 C 
BRANCH   5   6
HETATM    6  O   LIG     1      18.545  32.708  11.896  1.00  0.00    -0.400 OA
HETATM    7  H   LIG     1      18.712  32.322  10.997  1.00  0.00     0.209 HD
ENDBRANCH   5   6
ENDBRANCH   2   5
TORSDOF 2
ENDMDL
