MODEL 1
REMARK VINA RESULT:      -4.3      0.000      0.000
REMARK  1 active torsions:
REMARK  status: ('A' for Active; 'I' for Inactive)
REMARK    1  A    between atoms: C_2  and  C_5 
ROOT
HETATM    1  C   LIG     1      18.815  37.027  19.465  1.00  0.00     0.014 C 
HETATM    2  C   LIG     1      19.236  38.510  19.386  1.00  0.00    -0.052 C 
HETATM    3  C   LIG     1      18.784  39.103  18.035  1.00  0.00     0.014 C 
HETATM    4  C   LIG     1      20.775  38.587  19.463  1.00  0.00     0.014 C 
ENDROOT
BRANCH   2   5
HETATM    5  C   LIG     1      18.649  39.323  20.579  1.00  0.00     0.004 C 
HETATM    6  C   LIG     1      17.867  38.502  21.609  1.00  0.00     0.006 C 
ENDBRANCH   2   5
TORSDOF 1
ENDMDL
MODEL 2
REMARK VINA RESULT:      -4.2      0.605      2.068
REMARK  1 active torsions:
REMARK  status: ('A' for Active; 'I' for Inactive)
REMARK    1  A    between atoms: C_2  and  C_5 
ROOT
HETATM    1  C   LIG     1      18.720  39.239  18.127  1.00  0.00     0.014 C 
HETATM    2  C   LIG     1      19.198  38.510  19.401  1.00  0.00    -0.052 C 
HETATM    3  C   LIG     1      18.595  39.195  20.645  1.00  0.00     0.014 C 
HETATM    4  C   LIG     1      20.735  38.619  19.480  1.00  0.00     0.014 C 
ENDROOT
BRANCH   2   5
HETATM    5  C   LIG     1      18.821  36.998  19.355  1.00  0.00     0.004 C 
HETATM    6  C   LIG     1      17.935  36.510  20.507  1.00  0.00     0.006 C 
ENDBRANCH   2   5
TORSDOF 1
ENDMDL
MODEL 3
REMARK VINA RESULT:      -4.1      2.902      4.103
REMARK  1 active torsions:
REMARK  status: ('A' for Active; 'I' for Inactive)
REMARK    1  A    between atoms: C_2  and  C_5 
ROOT
HETATM    1  C   LIG     1      17.010  35.182  22.934  1.00  0.00     0.014 C 
HETATM    2  C   LIG     1      16.549  36.222  21.892  1.00  0.00    -0.052 C 
HETATM    3  C   LIG     1      15.167  35.819  21.338  1.00  0.00     0.014 C 
HETATM    4  C   LIG     1      17.560  36.229  20.725  1.00  0.00     0.014 C 
ENDROOT
BRANCH   2   5
HETATM    5  C   LIG     1      16.510  37.653  22.508  1.00  0.00     0.004 C 
HETATM    6  C   LIG     1      17.518  38.647  21.920  1.00  0.00     0.006 C 
ENDBRANCH   2   5
TORSDOF 1
ENDMDL
MODEL 4
REMARK VINA RESULT:      -4.1      2.976      4.184
REMARK  1 active torsions:
REMARK  status: ('A' for Active; 'I' for Inactive)
REMARK    1  A    between atoms: C_2  and  C_5 
ROOT
HETATM    1  C   LIG     1      15.157  35.680  21.283  1.00  0.00     0.014 C 
HETATM    2  C   LIG     1      16.509  36.169  21.844  1.00  0.00    -0.052 C 
HETATM    3  C   LIG     1      17.555  36.205  20.709  1.00  0.00     0.014 C 
HETATM    4  C   LIG     1      16.987  35.167  22.916  1.00  0.00     0.014 C 
ENDROOT
BRANCH   2   5
HETATM    5  C   LIG     1      16.364  37.567  22.517  1.00  0.00     0.004 C 
HETATM    6  C   LIG     1      17.399  38.611  22.086  1.00  0.00     0.006 C 
ENDBRANCH   2   5
TORSDOF 1
ENDMDL
MODEL 5
REMARK VINA RESULT:      -4.0      2.784      4.547
REMARK  1 active torsions:
REMARK  status: ('A' for Active; 'I' for Inactive)
REMARK    1  A    between atoms: C_2  and  C_5 
ROOT
HETATM    1  C   LIG     1      15.192  35.632  21.249  1.00  0.00     0.014 C 
HETATM    2  C   LIG     1      16.458  36.197  21.929  1.00  0.00    -0.052 C 
HETATM    3  C   LIG     1      16.981  35.182  22.967  1.00  0.00     0.014 C 
HETATM    4  C   LIG     1      16.079  37.499  22.666  1.00  0.00     0.014 C 
ENDROOT
BRANCH   2   5
HETATM    5  C   LIG     1      17.555  36.537  20.876  1.00  0.00     0.004 C 
HETATM    6  C   LIG     1      18.172  37.934  21.001  1.00  0.00     0.006 C 
ENDBRANCH   2   5
TORSDOF 1
ENDMDL
MODEL 6
REMARK VINA RESULT:      -4.0      3.222      4.543
REMARK  1 active torsions:
REMARK  status: ('A' for Active; 'I' for Inactive)
REMARK    1  A    between atoms: C_2  and  C_5 
ROOT
HETATM    1  C   LIG     1      15.399  37.755  22.747  1.00  0.00     0.014 C 
HETATM    2  C   LIG     1      16.865  37.280  22.828  1.00  0.00    -0.052 C 
HETATM    3  C   LIG     1      17.796  38.385  22.288  1.00  0.00     0.014 C 
HETATM    4  C   LIG     1      17.025  36.028  21.939  1.00  0.00     0.014 C 
ENDROOT
BRANCH   2   5
HETATM    5  C   LIG     1      17.247  36.890  24.288  1.00  0.00     0.004 C 
HETATM    6  C   LIG     1      17.326  38.057  25.277  1.00  0.00     0.006 C 
ENDBRANCH   2   5
TORSDOF 1
ENDMDL
MODEL 7
REMARK VINA RESULT:      -3.9      1.901      3.894
REMARK  1 active torsions:
REMARK  status: ('A' for Active; 'I' for Inactive)
REMARK    1  A    between atoms: C_2  and  C_5 
ROOT
HETATM    1  C   LIG     1      16.082  39.013  22.482  1.00  0.00     0.014 C 
HETATM    2  C   LIG     1      17.409  38.232  22.576  1.00  0.00    -0.052 C 
HETATM    3  C   LIG     1      17.297  36.924  21.764  1.00  0.00     0.014 C 
HETATM    4  C   LIG     1      17.661  37.869  24.055  1.00  0.00     0.014 C 
ENDROOT
BRANCH   2   5
HETATM    5  C   LIG     1      18.606  39.099  22.079  1.00  0.00     0.004 C 
HETATM    6  C   LIG     1      18.720  39.246  20.558  1.00  0.00     0.006 C 
ENDBRANCH   2   5
TORSDOF 1
ENDMDL
MODEL 8
REMARK VINA RESULT:      -3.8      3.128      4.525
REMARK  1 active torsions:
REMARK  status: ('A' for Active; 'I' for Inactive)
REMARK    1  A    between atoms: C_2  and  C_5 
ROOT
HETATM    1  C   LIG     1      17.394  37.349  24.127  1.00  0.00     0.014 C 
HETATM    2  C   LIG     1      16.952  37.688  22.687  1.00  0.00    -0.052 C 
HETATM    3  C   LIG     1      17.685  38.958  22.209  1.00  0.00     0.014 C 
HETATM    4  C   LIG     1      15.435  37.972  22.694  1.00  0.00     0.014 C 
ENDROOT
BRANCH   2   5
HETATM    5  C   LIG     1      17.217  36.492  21.724  1.00  0.00     0.004 C 
HETATM    6  C   LIG     1      16.970  35.103  22.321  1.00  0.00     0.006 C 
ENDBRANCH   2   5
TORSDOF 1
ENDMDL
MODEL 9
REMARK VINA RESULT:      -3.8      3.101      4.612
REMARK  1 active torsions:
REMARK  status: ('A' for Active; 'I' for Inactive)
REMARK    1  A    between atoms: C_2  and  C_5 
ROOT
HETATM    1  C   LIG     1      15.205  36.454  21.802  1.00  0.00     0.014 C 
HETATM    2  C   LIG     1      16.433  35.552  21.552  1.00  0.00    -0.052 C 
HETATM    3  C   LIG     1      16.000  34.300  20.760  1.00  0.00     0.014 C 
HETATM    4  C   LIG     1      16.994  35.098  22.916  1.00  0.00     0.014 C 
ENDROOT
BRANCH   2   5
HETATM    5  C   LIG     1      17.555  36.330  20.800  1.00  0.00     0.004 C 
HETATM    6  C   LIG     1      17.819  37.751  21.308  1.00  0.00     0.006 C 
ENDBRANCH   2   5
TORSDOF 1
ENDMDL
MODEL 10
REMARK VINA RESULT:      -3.8      3.076      4.496
REMARK  1 active torsions:
REMARK  status: ('A' for Active; 'I' for Inactive)
REMARK    1  A    between atoms: C_2  and  C_5 
ROOT
HETATM    1  C   LIG     1      15.397  37.857  22.715  1.00  0.00     0.014 C 
HETATM    2  C   LIG     1      16.926  37.665  22.630  1.00  0.00    -0.052 C 
HETATM    3  C   LIG     1      17.495  37.426  24.044  1.00  0.00     0.014 C 
HETATM    4  C   LIG     1      17.552  38.956  22.063  1.00  0.00     0.014 C 
ENDROOT
BRANCH   2   5
HETATM    5  C   LIG     1      17.291  36.489  21.674  1.00  0.00     0.004 C 
HETATM    6  C   LIG     1      16.963  35.089  22.203  1.00  0.00     0.006 C 
ENDBRANCH   2   5
TORSDOF 1
ENDMDL
MODEL 11
REMARK VINA RESULT:      -3.8      0.693      2.667
REMARK  1 active torsions:
REMARK  status: ('A' for Active; 'I' for Inactive)
REMARK    1  A    between atoms: C_2  and  C_5 
ROOT
HETATM    1  C   LIG     1      18.786  37.173  19.425  1.00  0.00     0.014 C 
HETATM    2  C   LIG     1      19.176  38.663  19.326  1.00  0.00    -0.052 C 
HETATM    3  C   LIG     1      20.706  38.786  19.175  1.00  0.00     0.014 C 
HETATM    4  C   LIG     1      18.755  39.368  20.633  1.00  0.00     0.014 C 
ENDROOT
BRANCH   2   5
HETATM    5  C   LIG     1      18.438  39.357  18.141  1.00  0.00     0.004 C 
HETATM    6  C   LIG     1      19.291  39.598  16.891  1.00  0.00     0.006 C 
ENDBRANCH   2   5
TORSDOF 1
ENDMDL
MODEL 12
REMARK VINA RESULT:      -3.8      7.647      9.391
REMARK  1 active torsions:
REMARK  status: ('A' for Active; 'I' for Inactive)
REMARK    1  A    between atoms: C_2  and  C_5 
ROOT
HETATM    1  C   LIG     1      27.927  39.996  19.715  1.00  0.00     0.014 C 
HETATM    2  C   LIG     1      28.401  38.574  19.343  1.00  0.00    -0.052 C 
HETATM    3  C   LIG     1      29.339  38.039  20.446  1.00  0.00     0.014 C 
HETATM    4  C   LIG     1      29.194  38.652  18.022  1.00  0.00     0.014 C 
ENDROOT
BRANCH   2   5
HETATM    5  C   LIG     1      27.189  37.619  19.127  1.00  0.00     0.004 C 
HETATM    6  C   LIG     1      26.263  37.990  17.964  1.00  0.00     0.006 C 
ENDBRANCH   2   5
TORSDOF 1
ENDMDL
MODEL 13
REMARK VINA RESULT:      -3.7      8.490      9.870
REMARK  1 active torsions:
REMARK  status: ('A' for Active; 'I' for Inactive)
REMARK    1  A    between atoms: C_2  and  C_5 
ROOT
HETATM    1  C   LIG     1      27.856  39.954  19.720  1.00  0.00     0.014 C 
HETATM    2  C   LIG     1      28.449  38.570  19.381  1.00  0.00    -0.052 C 
HETATM    3  C   LIG     1      29.190  38.644  18.030  1.00  0.00     0.014 C 
HETATM    4  C   LIG     1      27.290  37.559  19.248  1.00  0.00     0.014 C 
ENDROOT
BRANCH   2   5
HETATM    5  C   LIG     1      29.397  38.073  20.514  1.00  0.00     0.004 C 
HETATM    6  C   LIG     1      29.688  39.095  21.618  1.00  0.00     0.006 C 
ENDBRANCH   2   5
TORSDOF 1
ENDMDL
MODEL 14
REMARK VINA RESULT:      -3.6      2.616      4.018
REMARK  1 active torsions:
REMARK  status: ('A' for Active; 'I' for Inactive)
REMARK    1  A    between atoms: C_2  and  C_5 
ROOT
HETATM    1  C   LIG     1      18.335  39.211  21.728  1.00  0.00     0.014 C 
HETATM    2  C   LIG     1      17.355  38.211  22.378  1.00  0.00    -0.052 C 
HETATM    3  C   LIG     1      15.940  38.824  22.412  1.00  0.00     0.014 C 
HETATM    4  C   LIG     1      17.811  37.951  23.829  1.00  0.00     0.014 C 
ENDROOT
BRANCH   2   5
HETATM    5  C   LIG     1      17.358  36.850  21.617  1.00  0.00     0.004 C 
HETATM    6  C   LIG     1      16.301  35.841  22.078  1.00  0.00     0.006 C 
ENDBRANCH   2   5
TORSDOF 1
ENDMDL
MODEL 15
REMARK VINA RESULT:      -3.6     15.143     16.433
REMARK  1 active torsions:
REMARK  status: ('A' for Active; 'I' for Inactive)
REMARK    1  A    between atoms: C_2  and  C_5 
ROOT
HETATM    1  C   LIG     1      14.988  45.759  34.734  1.00  0.00     0.014 C 
HETATM    2  C   LIG     1      16.420  45.211  34.553  1.00  0.00    -0.052 C 
HETATM    3  C   LIG     1      16.415  43.681  34.756  1.00  0.00     0.014 C 
HETATM    4  C   LIG     1      17.327  45.844  35.629  1.00  0.00     0.014 C 
ENDROOT
BRANCH   2   5
HETATM    5  C   LIG     1      16.991  45.589  33.153  1.00  0.00     0.004 C 
HETATM    6  C   LIG     1      18.519  45.576  33.044  1.00  0.00     0.006 C 
ENDBRANCH   2   5
TORSDOF 1
ENDMDL
MODEL 16
REMARK VINA RESULT:      -3.6      3.012      4.581
REMARK  1 active torsions:
REMARK  status: ('A' for Active; 'I' for Inactive)
REMARK    1  A    between atoms: C_2  and  C_5 
ROOT
HETATM    1  C   LIG     1      17.175  35.227  22.546  1.00  0.00     0.014 C 
HETATM    2  C   LIG     1      16.723  36.702  22.497  1.00  0.00    -0.052 C 
HETATM    3  C   LIG     1      17.631  37.488  21.527  1.00  0.00     0.014 C 
HETATM    4  C   LIG     1      16.874  37.309  23.908  1.00  0.00     0.014 C 
ENDROOT
BRANCH   2   5
HETATM    5  C   LIG     1      15.226  36.815  22.078  1.00  0.00     0.004 C 
HETATM    6  C   LIG     1      14.702  35.669  21.206  1.00  0.00     0.006 C 
ENDBRANCH   2   5
TORSDOF 1
ENDMDL
MODEL 17
REMARK VINA RESULT:      -3.5      7.008      8.485
REMARK  1 active torsions:
REMARK  status: ('A' for Active; 'I' for Inactive)
REMARK    1  A    between atoms: C_2  and  C_5 
ROOT
HETATM    1  C   LIG     1      14.734  34.267  17.006  1.00  0.00     0.014 C 
HETATM    2  C   LIG     1      14.706  32.728  17.123  1.00  0.00    -0.052 C 
HETATM    3  C   LIG     1      15.225  32.307  18.514  1.00  0.00     0.014 C 
HETATM    4  C   LIG     1      15.646  32.137  16.051  1.00  0.00     0.014 C 
ENDROOT
BRANCH   2   5
HETATM    5  C   LIG     1      13.271  32.174  16.870  1.00  0.00     0.004 C 
HETATM    6  C   LIG     1      13.211  30.777  16.244  1.00  0.00     0.006 C 
ENDBRANCH   2   5
TORSDOF 1
ENDMDL
MODEL 18
REMARK VINA RESULT:      -3.5      7.000      8.390
REMARK  1 active torsions:
REMARK  status: ('A' for Active; 'I' for Inactive)
REMARK    1  A    between atoms: C_2  and  C_5 
ROOT
HETATM    1  C   LIG     1      15.257  32.320  18.523  1.00  0.00     0.014 C 
HETATM    2  C   LIG     1      14.741  32.698  17.119  1.00  0.00    -0.052 C 
HETATM    3  C   LIG     1      15.718  32.164  16.050  1.00  0.00     0.014 C 
HETATM    4  C   LIG     1      14.694  34.237  17.011  1.00  0.00     0.014 C 
ENDROOT
BRANCH   2   5
HETATM    5  C   LIG     1      13.301  32.151  16.885  1.00  0.00     0.004 C 
HETATM    6  C   LIG     1      13.224  30.789  16.187  1.00  0.00     0.006 C 
ENDBRANCH   2   5
TORSDOF 1
ENDMDL
MODEL 19
REMARK VINA RESULT:      -3.4      8.507      9.695
REMARK  1 active torsions:
REMARK  status: ('A' for Active; 'I' for Inactive)
REMARK    1  A    between atoms: C_2  and  C_5 
ROOT
HETATM    1  C   LIG     1      21.299  35.165  10.509  1.00  0.00     0.014 C 
HETATM    2  C   LIG     1      20.736  34.013  11.369  1.00  0.00    -0.052 C 
HETATM    3  C   LIG     1      21.009  32.666  10.667  1.00  0.00     0.014 C 
HETATM    4  C   LIG     1      19.209  34.197  11.498  1.00  0.00     0.014 C 
ENDROOT
BRANCH   2   5
HETATM    5  C   LIG     1      21.350  34.033  12.801  1.00  0.00     0.004 C 
HETATM    6  C   LIG     1      22.423  35.100  13.039  1.00  0.00     0.006 C 
ENDBRANCH   2   5
TORSDOF 1
ENDMDL
MODEL 20
REMARK VINA RESULT:      -3.3      7.071      8.389
REMARK  1 active torsions:
REMARK  status: ('A' for Active; 'I' for Inactive)
REMARK    1  A    between atoms: C_2  and  C_5 
ROOT
HETATM    1  C   LIG     1      14.632  33.766  16.917  1.00  0.00     0.014 C 
HETATM    2  C   LIG     1      14.243  32.273  16.964  1.00  0.00    -0.052 C 
HETATM    3  C   LIG     1      14.989  31.511  15.849  1.00  0.00     0.014 C 
HETATM    4  C   LIG     1      12.726  32.153  16.707  1.00  0.00     0.014 C 
ENDROOT
BRANCH   2   5
HETATM    5  C   LIG     1      14.548  31.659  18.364  1.00  0.00     0.004 C 
HETATM    6  C   LIG     1      15.321  32.570  19.323  1.00  0.00     0.006 C 
ENDBRANCH   2   5
TORSDOF 1
ENDMDL
