REMARK  1 active torsions:
REMARK  status: ('A' for Active; 'I' for Inactive)
REMARK    1  A    between atoms: C_2  and  C_5 
ROOT
HETATM    1  C   LIG     1      -0.993   0.330   1.235  1.00  0.00     0.014 C 
HETATM    2  C   LIG     1      -0.410   0.029  -0.162  1.00  0.00    -0.052 C 
HETATM    3  C   LIG     1      -0.084   1.355  -0.881  1.00  0.00     0.014 C 
HETATM    4  C   LIG     1      -1.475  -0.725  -0.986  1.00  0.00     0.014 C 
ENDROOT
BRANCH   2   5
HETATM    5  C   LIG     1       0.854  -0.877  -0.058  1.00  0.00     0.004 C 
HETATM    6  C   LIG     1       2.023  -0.281   0.733  1.00  0.00     0.006 C 
ENDBRANCH   2   5
TORSDOF 1
