REMARK  2 active torsions:
REMARK  status: ('A' for Active; 'I' for Inactive)
REMARK    1  A    between atoms: C_2  and  C_3 
REMARK    2  A    between atoms: C_3  and  O_5 
ROOT
HETATM    1  C   LIG     1      -0.512  -0.130   0.214  1.00  0.00     0.050 C 
HETATM    2  C   LIG     1      -0.822   1.330  -0.190  1.00  0.00     0.045 C 
HETATM    3  C   LIG     1      -1.625  -1.033  -0.343  1.00  0.00     0.045 C 
ENDROOT
BRANCH   1   4
HETATM    4  C   LIG     1       0.847  -0.610  -0.368  1.00  0.00     0.032 C 
HETATM    5  C   LIG     1       2.070   0.150   0.151  1.00  0.00     0.008 C 
ENDBRANCH   1   4
BRANCH   1   6
HETATM    6  O   LIG     1      -0.519  -0.271   1.617  1.00  0.00    -0.391 OA
HETATM    7  H   LIG     1       0.018   0.465   2.011  1.00  0.00     0.210 HD
ENDBRANCH   1   6
TORSDOF 2
