REMARK  2 active torsions:
REMARK  status: ('A' for Active; 'I' for Inactive)
REMARK    1  A    between atoms: C_2  and  C_5 
REMARK    2  A    between atoms: C_5  and  O_6 
ROOT
HETATM    1  C   LIG     1      -0.106  -1.146   1.212  1.00  0.00     0.016 C 
HETATM    2  C   LIG     1       0.112  -0.120   0.084  1.00  0.00    -0.030 C 
HETATM    3  C   LIG     1       0.588  -0.859  -1.184  1.00  0.00     0.016 C 
HETATM    4  C   LIG     1       1.188   0.892   0.524  1.00  0.00     0.016 C 
ENDROOT
BRANCH   2   5
HETATM    5  C   LIG     1      -1.222   0.612  -0.198  1.00  0.00     0.172 C 
BRANCH   5   6
HETATM    6  O   LIG     1      -1.066   1.558  -1.222  1.00  0.00    -0.400 OA
HETATM    7  H   LIG     1      -1.955   1.982  -1.344  1.00  0.00     0.209 HD
ENDBRANCH   5   6
ENDBRANCH   2   5
TORSDOF 2
