REMARK  9 active torsions:
REMARK  status: ('A' for Active; 'I' for Inactive)
REMARK    1  A    between atoms: N_2  and  C_3 
REMARK    2  A    between atoms: C_11  and  O_12 
REMARK    3  A    between atoms: C_17  and  O_18 
REMARK    4  A    between atoms: C_20  and  O_37 
REMARK    5  A    between atoms: C_21  and  O_36 
REMARK    6  A    between atoms: C_23  and  C_24 
REMARK       I    between atoms: C_24  and  N_25 
REMARK    7  A    between atoms: N_25  and  C_26 
REMARK    8  A    between atoms: C_26  and  N_27 
REMARK    9  A    between atoms: C_33  and  O_34 
ROOT
HETATM    1  C   LIG     1      -0.259  -2.745   0.335  1.00  0.00     0.286 C 
HETATM    2  C   LIG     1      -0.800  -1.316   0.031  1.00  0.00     0.075 C 
HETATM    3  C   LIG     1      -2.317  -1.228   0.231  1.00  0.00     0.024 C 
HETATM    4  C   LIG     1      -2.821   0.143  -0.265  1.00  0.00     0.065 C 
HETATM    5  C   LIG     1      -2.003   1.304   0.302  1.00  0.00     0.033 C 
HETATM    6  C   LIG     1      -2.678   2.628   0.336  1.00  0.00     0.194 C 
HETATM    7  C   LIG     1      -3.917   2.824  -0.445  1.00  0.00     0.057 A 
HETATM    8  C   LIG     1      -4.764   1.707  -0.639  1.00  0.00    -0.007 A 
HETATM    9  C   LIG     1      -4.367   0.340  -0.083  1.00  0.00     0.090 C 
HETATM   10  C   LIG     1      -4.805   0.289   1.403  1.00  0.00     0.052 C 
HETATM   11  C   LIG     1      -6.021   1.898  -1.247  1.00  0.00     0.011 A 
HETATM   12  C   LIG     1      -6.405   3.158  -1.702  1.00  0.00     0.003 A 
HETATM   13  C   LIG     1      -5.546   4.246  -1.562  1.00  0.00     0.037 A 
HETATM   14  C   LIG     1      -4.299   4.091  -0.951  1.00  0.00     0.080 A 
HETATM   15  O   LIG     1      -2.311   3.520   1.148  1.00  0.00    -0.287 OA
HETATM   16  C   LIG     1      -0.706   1.138   0.690  1.00  0.00     0.097 C 
HETATM   17  C   LIG     1      -0.097  -0.252   0.898  1.00  0.00     0.177 C 
HETATM   18  C   LIG     1       1.368  -0.342   0.514  1.00  0.00     0.208 C 
HETATM   19  C   LIG     1       2.022  -1.671   0.527  1.00  0.00     0.112 C 
HETATM   20  C   LIG     1       1.262  -2.795   0.524  1.00  0.00     0.096 C 
HETATM   21  O   LIG     1       2.023   0.677   0.160  1.00  0.00    -0.288 OA
ENDROOT
BRANCH  19  22
HETATM   22  C   LIG     1       3.501  -1.725   0.548  1.00  0.00     0.259 C 
HETATM   23  N   LIG     1       4.239  -0.833   1.398  1.00  0.00    -0.331 N 
HETATM   24  H   LIG     1       3.718  -0.301   2.131  1.00  0.00     0.164 HD
HETATM   25  O   LIG     1       4.111  -2.524  -0.214  1.00  0.00    -0.267 OA
BRANCH  23  26
HETATM   26  C   LIG     1       5.695  -0.672   1.324  1.00  0.00     0.397 C 
BRANCH  26  27
HETATM   27  N   LIG     1       6.097   0.527   0.558  1.00  0.00     0.105 N 
HETATM   28  C   LIG     1       5.687   0.516  -0.847  1.00  0.00     0.274 C 
HETATM   29  C   LIG     1       5.710   1.964  -1.305  1.00  0.00     0.032 C 
HETATM   30  C   LIG     1       5.606   2.795  -0.033  1.00  0.00     0.032 C 
HETATM   31  C   LIG     1       5.617   1.794   1.115  1.00  0.00     0.274 C 
ENDBRANCH  26  27
ENDBRANCH  23  26
ENDBRANCH  19  22
BRANCH  20  32
HETATM   32  O   LIG     1       1.832  -4.052   0.753  1.00  0.00    -0.362 OA
HETATM   33  H   LIG     1       2.794  -4.192   1.035  1.00  0.00     0.217 HD
ENDBRANCH  20  32
BRANCH  17  34
HETATM   34  O   LIG     1      -0.239  -0.597   2.257  1.00  0.00    -0.374 OA
HETATM   35  H   LIG     1       0.292   0.052   2.791  1.00  0.00     0.211 HD
ENDBRANCH  17  34
BRANCH   1  36
HETATM   36  N   LIG     1      -0.749  -3.681  -0.717  1.00  0.00     0.091 N 
HETATM   37  C   LIG     1       0.102  -3.756  -1.920  1.00  0.00     0.310 C 
HETATM   38  C   LIG     1      -1.039  -5.026  -0.194  1.00  0.00     0.310 C 
ENDBRANCH   1  36
BRANCH  16  39
HETATM   39  O   LIG     1       0.103   2.235   1.008  1.00  0.00    -0.361 OA
HETATM   40  H   LIG     1      -0.052   3.170   0.654  1.00  0.00     0.217 HD
ENDBRANCH  16  39
BRANCH   9  41
HETATM   41  O   LIG     1      -5.042  -0.656  -0.823  1.00  0.00    -0.385 OA
HETATM   42  H   LIG     1      -5.028  -1.505  -0.310  1.00  0.00     0.211 HD
ENDBRANCH   9  41
BRANCH  14  43
HETATM   43  O   LIG     1      -3.460   5.207  -0.890  1.00  0.00    -0.360 OA
HETATM   44  H   LIG     1      -2.490   5.157  -0.611  1.00  0.00     0.217 HD
ENDBRANCH  14  43
TORSDOF 9
