REMARK  4 active torsions:
REMARK  status: ('A' for Active; 'I' for Inactive)
REMARK    1  A    between atoms: N_1  and  C_2 
REMARK    2  A    between atoms: C_2  and  C_3 
REMARK    3  A    between atoms: C_3  and  C_5 
REMARK    4  A    between atoms: C_3  and  O_4 
ROOT
HETATM    1  C   LIG     1       1.171  -0.268  -0.496  1.00  0.00     0.179 C 
ENDROOT
BRANCH   1   2
HETATM    2  C   LIG     1       1.946   0.468   0.612  1.00  0.00     0.303 C 
BRANCH   2   3
HETATM    3  N   LIG     1       3.389   0.442   0.372  1.00  0.00     0.081 N 
HETATM    4  H   LIG     1       3.587   0.871  -0.561  1.00  0.00     0.312 HD
HETATM    5  H   LIG     1       3.713  -0.552   0.343  1.00  0.00     0.312 HD
ENDBRANCH   2   3
ENDBRANCH   1   2
BRANCH   1   6
HETATM    6  C   LIG     1      -0.321  -0.095  -0.303  1.00  0.00    -0.028 A 
HETATM    7  C   LIG     1      -0.972  -0.669   0.805  1.00  0.00     0.010 A 
HETATM    8  C   LIG     1      -2.350  -0.508   0.977  1.00  0.00     0.001 A 
HETATM    9  C   LIG     1      -3.091   0.224   0.046  1.00  0.00     0.000 A 
HETATM   10  C   LIG     1      -2.455   0.796  -1.059  1.00  0.00     0.001 A 
HETATM   11  C   LIG     1      -1.077   0.637  -1.236  1.00  0.00     0.010 A 
ENDBRANCH   1   6
BRANCH   1  12
HETATM   12  O   LIG     1       1.498  -1.634  -0.477  1.00  0.00    -0.389 OA
HETATM   13  H   LIG     1       1.179  -2.016  -1.337  1.00  0.00     0.210 HD
ENDBRANCH   1  12
TORSDOF 4
