REMARK  1 active torsions:
REMARK  status: ('A' for Active; 'I' for Inactive)
REMARK    1  A    between atoms: C_2  and  C_4 
ROOT
HETATM    1  C   LIG     1       1.947   0.197   0.052  1.00  0.00     0.028 C 
HETATM    2  C   LIG     1       0.587  -0.471  -0.177  1.00  0.00     0.096 C 
HETATM    3 CL   LIG     1       0.531  -1.962   0.813  1.00  0.00    -0.124 Cl
ENDROOT
BRANCH   2   4
HETATM    4  C   LIG     1      -0.587   0.471   0.177  1.00  0.00     0.096 C 
HETATM    5  C   LIG     1      -1.947  -0.197  -0.052  1.00  0.00     0.028 C 
HETATM    6 CL   LIG     1      -0.531   1.962  -0.813  1.00  0.00    -0.124 Cl
ENDBRANCH   2   4
TORSDOF 1
