MODEL 1
REMARK VINA RESULT:      -4.1      0.000      0.000
REMARK  1 active torsions:
REMARK  status: ('A' for Active; 'I' for Inactive)
REMARK    1  A    between atoms: C_2  and  C_4 
ROOT
HETATM    1  C   LIG     1      16.899  35.348  22.638  1.00  0.00     0.028 C 
HETATM    2  C   LIG     1      17.044  36.706  23.332  1.00  0.00     0.096 C 
HETATM    3 CL   LIG     1      15.639  37.715  22.869  1.00  0.00    -0.124 Cl
ENDROOT
BRANCH   2   4
HETATM    4  C   LIG     1      17.137  36.563  24.869  1.00  0.00     0.096 C 
HETATM    5  C   LIG     1      18.255  37.430  25.459  1.00  0.00     0.028 C 
HETATM    6 CL   LIG     1      17.454  34.863  25.335  1.00  0.00    -0.124 Cl
ENDBRANCH   2   4
TORSDOF 1
ENDMDL
MODEL 2
REMARK VINA RESULT:      -4.1      1.850      2.867
REMARK  1 active torsions:
REMARK  status: ('A' for Active; 'I' for Inactive)
REMARK    1  A    between atoms: C_2  and  C_4 
ROOT
HETATM    1  C   LIG     1      17.378  34.868  25.510  1.00  0.00     0.028 C 
HETATM    2  C   LIG     1      17.320  36.374  25.228  1.00  0.00     0.096 C 
HETATM    3 CL   LIG     1      18.760  37.131  25.977  1.00  0.00    -0.124 Cl
ENDROOT
BRANCH   2   4
HETATM    4  C   LIG     1      17.262  36.677  23.713  1.00  0.00     0.096 C 
HETATM    5  C   LIG     1      16.163  37.688  23.373  1.00  0.00     0.028 C 
HETATM    6 CL   LIG     1      16.949  35.185  22.774  1.00  0.00    -0.124 Cl
ENDBRANCH   2   4
TORSDOF 1
ENDMDL
MODEL 3
REMARK VINA RESULT:      -3.9      1.002      3.412
REMARK  1 active torsions:
REMARK  status: ('A' for Active; 'I' for Inactive)
REMARK    1  A    between atoms: C_2  and  C_4 
ROOT
HETATM    1  C   LIG     1      17.207  37.843  25.387  1.00  0.00     0.028 C 
HETATM    2  C   LIG     1      17.619  36.665  24.498  1.00  0.00     0.096 C 
HETATM    3 CL   LIG     1      17.354  35.156  25.424  1.00  0.00    -0.124 Cl
ENDROOT
BRANCH   2   4
HETATM    4  C   LIG     1      16.832  36.642  23.167  1.00  0.00     0.096 C 
HETATM    5  C   LIG     1      16.887  35.267  22.492  1.00  0.00     0.028 C 
HETATM    6 CL   LIG     1      17.487  37.848  22.016  1.00  0.00    -0.124 Cl
ENDBRANCH   2   4
TORSDOF 1
ENDMDL
MODEL 4
REMARK VINA RESULT:      -3.8      0.937      2.610
REMARK  1 active torsions:
REMARK  status: ('A' for Active; 'I' for Inactive)
REMARK    1  A    between atoms: C_2  and  C_4 
ROOT
HETATM    1  C   LIG     1      17.058  35.301  22.438  1.00  0.00     0.028 C 
HETATM    2  C   LIG     1      16.785  35.987  23.780  1.00  0.00     0.096 C 
HETATM    3 CL   LIG     1      17.472  34.958  25.075  1.00  0.00    -0.124 Cl
ENDROOT
BRANCH   2   4
HETATM    4  C   LIG     1      17.380  37.413  23.833  1.00  0.00     0.096 C 
HETATM    5  C   LIG     1      17.307  38.013  25.241  1.00  0.00     0.028 C 
HETATM    6 CL   LIG     1      16.509  38.511  22.719  1.00  0.00    -0.124 Cl
ENDBRANCH   2   4
TORSDOF 1
ENDMDL
MODEL 5
REMARK VINA RESULT:      -3.8      2.215      2.723
REMARK  1 active torsions:
REMARK  status: ('A' for Active; 'I' for Inactive)
REMARK    1  A    between atoms: C_2  and  C_4 
ROOT
HETATM    1  C   LIG     1      17.563  36.314  20.848  1.00  0.00     0.028 C 
HETATM    2  C   LIG     1      16.564  36.360  22.010  1.00  0.00     0.096 C 
HETATM    3 CL   LIG     1      17.044  35.109  23.199  1.00  0.00    -0.124 Cl
ENDROOT
BRANCH   2   4
HETATM    4  C   LIG     1      16.509  37.757  22.671  1.00  0.00     0.096 C 
HETATM    5  C   LIG     1      17.577  38.700  22.108  1.00  0.00     0.028 C 
HETATM    6 CL   LIG     1      16.755  37.637  24.440  1.00  0.00    -0.124 Cl
ENDBRANCH   2   4
TORSDOF 1
ENDMDL
MODEL 6
REMARK VINA RESULT:      -3.8      1.553      1.928
REMARK  1 active torsions:
REMARK  status: ('A' for Active; 'I' for Inactive)
REMARK    1  A    between atoms: C_2  and  C_4 
ROOT
HETATM    1  C   LIG     1      17.014  39.035  22.735  1.00  0.00     0.028 C 
HETATM    2  C   LIG     1      16.510  37.608  22.972  1.00  0.00     0.096 C 
HETATM    3 CL   LIG     1      17.222  36.555  21.711  1.00  0.00    -0.124 Cl
ENDROOT
BRANCH   2   4
HETATM    4  C   LIG     1      16.869  37.096  24.386  1.00  0.00     0.096 C 
HETATM    5  C   LIG     1      18.070  37.841  24.978  1.00  0.00     0.028 C 
HETATM    6 CL   LIG     1      17.266  35.350  24.352  1.00  0.00    -0.124 Cl
ENDBRANCH   2   4
TORSDOF 1
ENDMDL
MODEL 7
REMARK VINA RESULT:      -3.7      2.413      3.138
REMARK  1 active torsions:
REMARK  status: ('A' for Active; 'I' for Inactive)
REMARK    1  A    between atoms: C_2  and  C_4 
ROOT
HETATM    1  C   LIG     1      17.422  37.466  24.477  1.00  0.00     0.028 C 
HETATM    2  C   LIG     1      16.946  37.719  23.043  1.00  0.00     0.096 C 
HETATM    3 CL   LIG     1      18.193  38.699  22.212  1.00  0.00    -0.124 Cl
ENDROOT
BRANCH   2   4
HETATM    4  C   LIG     1      16.682  36.400  22.280  1.00  0.00     0.096 C 
HETATM    5  C   LIG     1      17.018  35.169  23.129  1.00  0.00     0.028 C 
HETATM    6 CL   LIG     1      17.660  36.321  20.782  1.00  0.00    -0.124 Cl
ENDBRANCH   2   4
TORSDOF 1
ENDMDL
MODEL 8
REMARK VINA RESULT:      -3.6      2.503      2.979
REMARK  1 active torsions:
REMARK  status: ('A' for Active; 'I' for Inactive)
REMARK    1  A    between atoms: C_2  and  C_4 
ROOT
HETATM    1  C   LIG     1      18.215  36.716  19.948  1.00  0.00     0.028 C 
HETATM    2  C   LIG     1      17.940  37.291  21.342  1.00  0.00     0.096 C 
HETATM    3 CL   LIG     1      17.916  39.076  21.208  1.00  0.00    -0.124 Cl
ENDROOT
BRANCH   2   4
HETATM    4  C   LIG     1      16.612  36.764  21.933  1.00  0.00     0.096 C 
HETATM    5  C   LIG     1      15.995  37.753  22.928  1.00  0.00     0.028 C 
HETATM    6 CL   LIG     1      16.864  35.209  22.786  1.00  0.00    -0.124 Cl
ENDBRANCH   2   4
TORSDOF 1
ENDMDL
MODEL 9
REMARK VINA RESULT:      -3.5      4.670      5.254
REMARK  1 active torsions:
REMARK  status: ('A' for Active; 'I' for Inactive)
REMARK    1  A    between atoms: C_2  and  C_4 
ROOT
HETATM    1  C   LIG     1      20.674  38.470  19.553  1.00  0.00     0.028 C 
HETATM    2  C   LIG     1      19.357  39.252  19.530  1.00  0.00     0.096 C 
HETATM    3 CL   LIG     1      18.733  39.231  17.852  1.00  0.00    -0.124 Cl
ENDROOT
BRANCH   2   4
HETATM    4  C   LIG     1      18.318  38.663  20.512  1.00  0.00     0.096 C 
HETATM    5  C   LIG     1      18.628  39.035  21.966  1.00  0.00     0.028 C 
HETATM    6 CL   LIG     1      18.270  36.877  20.398  1.00  0.00    -0.124 Cl
ENDBRANCH   2   4
TORSDOF 1
ENDMDL
MODEL 10
REMARK VINA RESULT:      -3.5      3.157      4.176
REMARK  1 active torsions:
REMARK  status: ('A' for Active; 'I' for Inactive)
REMARK    1  A    between atoms: C_2  and  C_4 
ROOT
HETATM    1  C   LIG     1      16.794  37.795  22.721  1.00  0.00     0.028 C 
HETATM    2  C   LIG     1      17.582  38.046  21.431  1.00  0.00     0.096 C 
HETATM    3 CL   LIG     1      18.959  39.121  21.824  1.00  0.00    -0.124 Cl
ENDROOT
BRANCH   2   4
HETATM    4  C   LIG     1      18.076  36.728  20.790  1.00  0.00     0.096 C 
HETATM    5  C   LIG     1      18.810  36.974  19.468  1.00  0.00     0.028 C 
HETATM    6 CL   LIG     1      16.706  35.623  20.463  1.00  0.00    -0.124 Cl
ENDBRANCH   2   4
TORSDOF 1
ENDMDL
MODEL 11
REMARK VINA RESULT:      -3.5      2.338      3.608
REMARK  1 active torsions:
REMARK  status: ('A' for Active; 'I' for Inactive)
REMARK    1  A    between atoms: C_2  and  C_4 
ROOT
HETATM    1  C   LIG     1      17.079  35.266  23.632  1.00  0.00     0.028 C 
HETATM    2  C   LIG     1      16.668  36.163  22.460  1.00  0.00     0.096 C 
HETATM    3 CL   LIG     1      17.350  37.794  22.747  1.00  0.00    -0.124 Cl
ENDROOT
BRANCH   2   4
HETATM    4  C   LIG     1      17.146  35.597  21.103  1.00  0.00     0.096 C 
HETATM    5  C   LIG     1      18.054  36.581  20.358  1.00  0.00     0.028 C 
HETATM    6 CL   LIG     1      15.753  35.220  20.042  1.00  0.00    -0.124 Cl
ENDBRANCH   2   4
TORSDOF 1
ENDMDL
MODEL 12
REMARK VINA RESULT:      -3.5      2.044      2.294
REMARK  1 active torsions:
REMARK  status: ('A' for Active; 'I' for Inactive)
REMARK    1  A    between atoms: C_2  and  C_4 
ROOT
HETATM    1  C   LIG     1      15.594  37.719  22.998  1.00  0.00     0.028 C 
HETATM    2  C   LIG     1      17.072  37.329  22.887  1.00  0.00     0.096 C 
HETATM    3 CL   LIG     1      17.952  38.705  22.153  1.00  0.00    -0.124 Cl
ENDROOT
BRANCH   2   4
HETATM    4  C   LIG     1      17.677  36.957  24.261  1.00  0.00     0.096 C 
HETATM    5  C   LIG     1      17.239  35.563  24.721  1.00  0.00     0.028 C 
HETATM    6 CL   LIG     1      17.180  38.133  25.517  1.00  0.00    -0.124 Cl
ENDBRANCH   2   4
TORSDOF 1
ENDMDL
MODEL 13
REMARK VINA RESULT:      -3.4     10.352     11.457
REMARK  1 active torsions:
REMARK  status: ('A' for Active; 'I' for Inactive)
REMARK    1  A    between atoms: C_2  and  C_4 
ROOT
HETATM    1  C   LIG     1      15.654  31.268  13.441  1.00  0.00     0.028 C 
HETATM    2  C   LIG     1      14.662  30.312  14.111  1.00  0.00     0.096 C 
HETATM    3 CL   LIG     1      15.297  28.647  13.938  1.00  0.00    -0.124 Cl
ENDROOT
BRANCH   2   4
HETATM    4  C   LIG     1      14.434  30.665  15.599  1.00  0.00     0.096 C 
HETATM    5  C   LIG     1      12.944  30.703  15.958  1.00  0.00     0.028 C 
HETATM    6 CL   LIG     1      15.137  32.264  15.992  1.00  0.00    -0.124 Cl
ENDBRANCH   2   4
TORSDOF 1
ENDMDL
MODEL 14
REMARK VINA RESULT:      -3.4      9.929     11.184
REMARK  1 active torsions:
REMARK  status: ('A' for Active; 'I' for Inactive)
REMARK    1  A    between atoms: C_2  and  C_4 
ROOT
HETATM    1  C   LIG     1      15.216  29.159  14.075  1.00  0.00     0.028 C 
HETATM    2  C   LIG     1      14.740  30.588  14.358  1.00  0.00     0.096 C 
HETATM    3 CL   LIG     1      13.537  30.516  15.683  1.00  0.00    -0.124 Cl
ENDROOT
BRANCH   2   4
HETATM    4  C   LIG     1      15.913  31.526  14.728  1.00  0.00     0.096 C 
HETATM    5  C   LIG     1      15.540  32.492  15.857  1.00  0.00     0.028 C 
HETATM    6 CL   LIG     1      16.422  32.499  13.314  1.00  0.00    -0.124 Cl
ENDBRANCH   2   4
TORSDOF 1
ENDMDL
MODEL 15
REMARK VINA RESULT:      -3.4      1.985      2.892
REMARK  1 active torsions:
REMARK  status: ('A' for Active; 'I' for Inactive)
REMARK    1  A    between atoms: C_2  and  C_4 
ROOT
HETATM    1  C   LIG     1      15.759  38.352  22.709  1.00  0.00     0.028 C 
HETATM    2  C   LIG     1      17.080  37.603  22.915  1.00  0.00     0.096 C 
HETATM    3 CL   LIG     1      17.475  37.651  24.661  1.00  0.00    -0.124 Cl
ENDROOT
BRANCH   2   4
HETATM    4  C   LIG     1      17.003  36.145  22.406  1.00  0.00     0.096 C 
HETATM    5  C   LIG     1      15.695  35.866  21.659  1.00  0.00     0.028 C 
HETATM    6 CL   LIG     1      17.119  34.986  23.767  1.00  0.00    -0.124 Cl
ENDBRANCH   2   4
TORSDOF 1
ENDMDL
MODEL 16
REMARK VINA RESULT:      -3.4      2.227      3.088
REMARK  1 active torsions:
REMARK  status: ('A' for Active; 'I' for Inactive)
REMARK    1  A    between atoms: C_2  and  C_4 
ROOT
HETATM    1  C   LIG     1      18.087  36.566  20.337  1.00  0.00     0.028 C 
HETATM    2  C   LIG     1      16.833  36.271  21.166  1.00  0.00     0.096 C 
HETATM    3 CL   LIG     1      16.393  34.554  20.910  1.00  0.00    -0.124 Cl
ENDROOT
BRANCH   2   4
HETATM    4  C   LIG     1      17.050  36.567  22.668  1.00  0.00     0.096 C 
HETATM    5  C   LIG     1      17.001  35.291  23.516  1.00  0.00     0.028 C 
HETATM    6 CL   LIG     1      15.800  37.689  23.286  1.00  0.00    -0.124 Cl
ENDBRANCH   2   4
TORSDOF 1
ENDMDL
MODEL 17
REMARK VINA RESULT:      -3.3      9.061     10.628
REMARK  1 active torsions:
REMARK  status: ('A' for Active; 'I' for Inactive)
REMARK    1  A    between atoms: C_2  and  C_4 
ROOT
HETATM    1  C   LIG     1      14.986  32.477  17.059  1.00  0.00     0.028 C 
HETATM    2  C   LIG     1      15.312  32.131  15.603  1.00  0.00     0.096 C 
HETATM    3 CL   LIG     1      17.083  32.274  15.384  1.00  0.00    -0.124 Cl
ENDROOT
BRANCH   2   4
HETATM    4  C   LIG     1      14.821  30.715  15.221  1.00  0.00     0.096 C 
HETATM    5  C   LIG     1      15.061  30.405  13.740  1.00  0.00     0.028 C 
HETATM    6 CL   LIG     1      13.070  30.536  15.546  1.00  0.00    -0.124 Cl
ENDBRANCH   2   4
TORSDOF 1
ENDMDL
MODEL 18
REMARK VINA RESULT:      -3.3      7.530      8.952
REMARK  1 active torsions:
REMARK  status: ('A' for Active; 'I' for Inactive)
REMARK    1  A    between atoms: C_2  and  C_4 
ROOT
HETATM    1  C   LIG     1      12.704  32.080  16.740  1.00  0.00     0.028 C 
HETATM    2  C   LIG     1      14.077  31.416  16.886  1.00  0.00     0.096 C 
HETATM    3 CL   LIG     1      14.556  30.779  15.283  1.00  0.00    -0.124 Cl
ENDROOT
BRANCH   2   4
HETATM    4  C   LIG     1      15.140  32.399  17.430  1.00  0.00     0.096 C 
HETATM    5  C   LIG     1      15.192  32.397  18.961  1.00  0.00     0.028 C 
HETATM    6 CL   LIG     1      14.797  34.072  16.892  1.00  0.00    -0.124 Cl
ENDBRANCH   2   4
TORSDOF 1
ENDMDL
MODEL 19
REMARK VINA RESULT:      -3.2      8.464      9.744
REMARK  1 active torsions:
REMARK  status: ('A' for Active; 'I' for Inactive)
REMARK    1  A    between atoms: C_2  and  C_4 
ROOT
HETATM    1  C   LIG     1      15.009  34.016  16.965  1.00  0.00     0.028 C 
HETATM    2  C   LIG     1      15.248  32.541  16.624  1.00  0.00     0.096 C 
HETATM    3 CL   LIG     1      13.704  31.664  16.860  1.00  0.00    -0.124 Cl
ENDROOT
BRANCH   2   4
HETATM    4  C   LIG     1      15.771  32.358  15.180  1.00  0.00     0.096 C 
HETATM    5  C   LIG     1      15.456  30.964  14.629  1.00  0.00     0.028 C 
HETATM    6 CL   LIG     1      17.545  32.592  15.109  1.00  0.00    -0.124 Cl
ENDBRANCH   2   4
TORSDOF 1
ENDMDL
MODEL 20
REMARK VINA RESULT:      -3.1      9.013     10.112
REMARK  1 active torsions:
REMARK  status: ('A' for Active; 'I' for Inactive)
REMARK    1  A    between atoms: C_2  and  C_4 
ROOT
HETATM    1  C   LIG     1      16.733  32.712  15.041  1.00  0.00     0.028 C 
HETATM    2  C   LIG     1      15.634  32.271  16.013  1.00  0.00     0.096 C 
HETATM    3 CL   LIG     1      14.917  33.742  16.740  1.00  0.00    -0.124 Cl
ENDROOT
BRANCH   2   4
HETATM    4  C   LIG     1      14.551  31.417  15.313  1.00  0.00     0.096 C 
HETATM    5  C   LIG     1      13.510  30.886  16.304  1.00  0.00     0.028 C 
HETATM    6 CL   LIG     1      15.285  30.013  14.479  1.00  0.00    -0.124 Cl
ENDBRANCH   2   4
TORSDOF 1
ENDMDL
