REMARK  2 active torsions:
REMARK  status: ('A' for Active; 'I' for Inactive)
REMARK       I    between atoms: N_1  and  C_2 
REMARK       I    between atoms: C_2  and  N_3 
REMARK    1  A    between atoms: N_3  and  C_6 
REMARK    2  A    between atoms: N_3  and  N_4 
ROOT
HETATM    1  N   LIG     1      -2.364  -0.329   0.027  1.00  0.00    -0.350 N 
HETATM    2  C   LIG     1      -1.397   0.653   0.405  1.00  0.00     0.338 C 
HETATM    3  N   LIG     1      -0.056   0.616  -0.122  1.00  0.00    -0.196 N 
HETATM    4  O   LIG     1      -1.732   1.564   1.209  1.00  0.00    -0.245 OA
HETATM    5  H   LIG     1      -2.164  -1.027  -0.723  1.00  0.00     0.160 HD
HETATM    6  H   LIG     1      -3.318  -0.316   0.452  1.00  0.00     0.160 HD
ENDROOT
BRANCH   3   7
HETATM    7  C   LIG     1       0.546  -0.657  -0.536  1.00  0.00     0.154 C 
HETATM    8  C   LIG     1       2.025  -0.723  -0.159  1.00  0.00     0.029 C 
ENDBRANCH   3   7
BRANCH   3   9
HETATM    9  N   LIG     1       0.654   1.809  -0.364  1.00  0.00    -0.008 NA
HETATM   10  O   LIG     1       0.152   2.931  -0.147  1.00  0.00    -0.041 OA
ENDBRANCH   3   9
TORSDOF 2
