MODEL 1
REMARK VINA RESULT:      -4.8      0.000      0.000
REMARK  2 active torsions:
REMARK  status: ('A' for Active; 'I' for Inactive)
REMARK       I    between atoms: N_1  and  C_2 
REMARK       I    between atoms: C_2  and  N_3 
REMARK    1  A    between atoms: N_3  and  C_6 
REMARK    2  A    between atoms: N_3  and  N_4 
ROOT
HETATM    1  N   LIG     1      17.419  36.287  25.761  1.00  0.00    -0.350 N 
HETATM    2  C   LIG     1      17.039  37.406  24.958  1.00  0.00     0.338 C 
HETATM    3  N   LIG     1      16.513  37.222  23.628  1.00  0.00    -0.196 N 
HETATM    4  O   LIG     1      17.164  38.568  25.429  1.00  0.00    -0.245 OA
HETATM    5  H   LIG     1      17.223  35.308  25.456  1.00  0.00     0.160 HD
HETATM    6  H   LIG     1      17.841  36.438  26.704  1.00  0.00     0.160 HD
ENDROOT
BRANCH   3   7
HETATM    7  C   LIG     1      16.890  36.045  22.836  1.00  0.00     0.154 C 
HETATM    8  C   LIG     1      17.261  36.431  21.406  1.00  0.00     0.029 C 
ENDBRANCH   3   7
BRANCH   3   9
HETATM    9  N   LIG     1      15.538  38.099  23.113  1.00  0.00    -0.008 NA
HETATM   10  O   LIG     1      15.823  39.254  22.735  1.00  0.00    -0.041 OA
ENDBRANCH   3   9
TORSDOF 2
ENDMDL
MODEL 2
REMARK VINA RESULT:      -4.7      1.912      3.245
REMARK  2 active torsions:
REMARK  status: ('A' for Active; 'I' for Inactive)
REMARK       I    between atoms: N_1  and  C_2 
REMARK       I    between atoms: C_2  and  N_3 
REMARK    1  A    between atoms: N_3  and  C_6 
REMARK    2  A    between atoms: N_3  and  N_4 
ROOT
HETATM    1  N   LIG     1      17.084  35.170  22.182  1.00  0.00    -0.350 N 
HETATM    2  C   LIG     1      16.858  36.302  23.024  1.00  0.00     0.338 C 
HETATM    3  N   LIG     1      17.237  36.280  24.415  1.00  0.00    -0.196 N 
HETATM    4  O   LIG     1      16.322  37.332  22.534  1.00  0.00    -0.245 OA
HETATM    5  H   LIG     1      17.629  34.345  22.517  1.00  0.00     0.160 HD
HETATM    6  H   LIG     1      16.763  35.183  21.188  1.00  0.00     0.160 HD
ENDROOT
BRANCH   3   7
HETATM    7  C   LIG     1      17.286  35.013  25.153  1.00  0.00     0.154 C 
HETATM    8  C   LIG     1      18.275  35.083  26.316  1.00  0.00     0.029 C 
ENDBRANCH   3   7
BRANCH   3   9
HETATM    9  N   LIG     1      17.684  37.453  25.056  1.00  0.00    -0.008 NA
HETATM   10  O   LIG     1      16.890  38.273  25.561  1.00  0.00    -0.041 OA
ENDBRANCH   3   9
TORSDOF 2
ENDMDL
MODEL 3
REMARK VINA RESULT:      -4.6      7.451      8.143
REMARK  2 active torsions:
REMARK  status: ('A' for Active; 'I' for Inactive)
REMARK       I    between atoms: N_1  and  C_2 
REMARK       I    between atoms: C_2  and  N_3 
REMARK    1  A    between atoms: N_3  and  C_6 
REMARK    2  A    between atoms: N_3  and  N_4 
ROOT
HETATM    1  N   LIG     1      14.233  31.492  18.956  1.00  0.00    -0.350 N 
HETATM    2  C   LIG     1      15.004  32.587  18.456  1.00  0.00     0.338 C 
HETATM    3  N   LIG     1      14.939  32.968  17.067  1.00  0.00    -0.196 N 
HETATM    4  O   LIG     1      15.745  33.227  19.250  1.00  0.00    -0.245 OA
HETATM    5  H   LIG     1      13.521  31.014  18.361  1.00  0.00     0.160 HD
HETATM    6  H   LIG     1      14.325  31.200  19.954  1.00  0.00     0.160 HD
ENDROOT
BRANCH   3   7
HETATM    7  C   LIG     1      14.614  31.974  16.038  1.00  0.00     0.154 C 
HETATM    8  C   LIG     1      15.786  31.757  15.082  1.00  0.00     0.029 C 
ENDBRANCH   3   7
BRANCH   3   9
HETATM    9  N   LIG     1      15.065  34.319  16.686  1.00  0.00    -0.008 NA
HETATM   10  O   LIG     1      16.153  34.799  16.307  1.00  0.00    -0.041 OA
ENDBRANCH   3   9
TORSDOF 2
ENDMDL
MODEL 4
REMARK VINA RESULT:      -4.6      2.069      2.745
REMARK  2 active torsions:
REMARK  status: ('A' for Active; 'I' for Inactive)
REMARK       I    between atoms: N_1  and  C_2 
REMARK       I    between atoms: C_2  and  N_3 
REMARK    1  A    between atoms: N_3  and  C_6 
REMARK    2  A    between atoms: N_3  and  N_4 
ROOT
HETATM    1  N   LIG     1      16.983  35.237  21.766  1.00  0.00    -0.350 N 
HETATM    2  C   LIG     1      17.011  35.906  23.028  1.00  0.00     0.338 C 
HETATM    3  N   LIG     1      16.809  37.330  23.118  1.00  0.00    -0.196 N 
HETATM    4  O   LIG     1      17.212  35.232  24.074  1.00  0.00    -0.245 OA
HETATM    5  H   LIG     1      16.703  35.736  20.893  1.00  0.00     0.160 HD
HETATM    6  H   LIG     1      17.176  34.212  21.711  1.00  0.00     0.160 HD
ENDROOT
BRANCH   3   7
HETATM    7  C   LIG     1      17.163  38.205  21.994  1.00  0.00     0.154 C 
HETATM    8  C   LIG     1      18.473  38.946  22.255  1.00  0.00     0.029 C 
ENDBRANCH   3   7
BRANCH   3   9
HETATM    9  N   LIG     1      16.158  37.894  24.233  1.00  0.00    -0.008 NA
HETATM   10  O   LIG     1      16.789  38.298  25.232  1.00  0.00    -0.041 OA
ENDBRANCH   3   9
TORSDOF 2
ENDMDL
MODEL 5
REMARK VINA RESULT:      -4.5      4.436      4.938
REMARK  2 active torsions:
REMARK  status: ('A' for Active; 'I' for Inactive)
REMARK       I    between atoms: N_1  and  C_2 
REMARK       I    between atoms: C_2  and  N_3 
REMARK    1  A    between atoms: N_3  and  C_6 
REMARK    2  A    between atoms: N_3  and  N_4 
ROOT
HETATM    1  N   LIG     1      18.938  39.923  20.709  1.00  0.00    -0.350 N 
HETATM    2  C   LIG     1      19.394  38.673  20.189  1.00  0.00     0.338 C 
HETATM    3  N   LIG     1      18.600  37.478  20.325  1.00  0.00    -0.196 N 
HETATM    4  O   LIG     1      20.507  38.625  19.600  1.00  0.00    -0.245 OA
HETATM    5  H   LIG     1      17.975  40.030  21.097  1.00  0.00     0.160 HD
HETATM    6  H   LIG     1      19.544  40.771  20.644  1.00  0.00     0.160 HD
ENDROOT
BRANCH   3   7
HETATM    7  C   LIG     1      17.665  37.329  21.447  1.00  0.00     0.154 C 
HETATM    8  C   LIG     1      17.105  35.910  21.521  1.00  0.00     0.029 C 
ENDBRANCH   3   7
BRANCH   3   9
HETATM    9  N   LIG     1      18.615  36.487  19.322  1.00  0.00    -0.008 NA
HETATM   10  O   LIG     1      18.157  36.698  18.180  1.00  0.00    -0.041 OA
ENDBRANCH   3   9
TORSDOF 2
ENDMDL
MODEL 6
REMARK VINA RESULT:      -4.4      1.788      2.127
REMARK  2 active torsions:
REMARK  status: ('A' for Active; 'I' for Inactive)
REMARK       I    between atoms: N_1  and  C_2 
REMARK       I    between atoms: C_2  and  N_3 
REMARK    1  A    between atoms: N_3  and  C_6 
REMARK    2  A    between atoms: N_3  and  N_4 
ROOT
HETATM    1  N   LIG     1      17.003  34.732  26.309  1.00  0.00    -0.350 N 
HETATM    2  C   LIG     1      17.758  35.896  25.967  1.00  0.00     0.338 C 
HETATM    3  N   LIG     1      17.540  36.582  24.718  1.00  0.00    -0.196 N 
HETATM    4  O   LIG     1      18.622  36.325  26.778  1.00  0.00    -0.245 OA
HETATM    5  H   LIG     1      16.200  34.414  25.722  1.00  0.00     0.160 HD
HETATM    6  H   LIG     1      17.203  34.219  27.196  1.00  0.00     0.160 HD
ENDROOT
BRANCH   3   7
HETATM    7  C   LIG     1      17.042  35.853  23.546  1.00  0.00     0.154 C 
HETATM    8  C   LIG     1      16.652  36.809  22.419  1.00  0.00     0.029 C 
ENDBRANCH   3   7
BRANCH   3   9
HETATM    9  N   LIG     1      17.683  37.981  24.632  1.00  0.00    -0.008 NA
HETATM   10  O   LIG     1      17.064  38.755  25.390  1.00  0.00    -0.041 OA
ENDBRANCH   3   9
TORSDOF 2
ENDMDL
MODEL 7
REMARK VINA RESULT:      -4.3      3.570      4.222
REMARK  2 active torsions:
REMARK  status: ('A' for Active; 'I' for Inactive)
REMARK       I    between atoms: N_1  and  C_2 
REMARK       I    between atoms: C_2  and  N_3 
REMARK    1  A    between atoms: N_3  and  C_6 
REMARK    2  A    between atoms: N_3  and  N_4 
ROOT
HETATM    1  N   LIG     1      17.396  37.885  22.939  1.00  0.00    -0.350 N 
HETATM    2  C   LIG     1      17.299  37.237  21.668  1.00  0.00     0.338 C 
HETATM    3  N   LIG     1      18.193  37.579  20.591  1.00  0.00    -0.196 N 
HETATM    4  O   LIG     1      16.418  36.352  21.498  1.00  0.00    -0.245 OA
HETATM    5  H   LIG     1      18.182  38.535  23.158  1.00  0.00     0.160 HD
HETATM    6  H   LIG     1      16.712  37.659  23.695  1.00  0.00     0.160 HD
ENDROOT
BRANCH   3   7
HETATM    7  C   LIG     1      18.784  38.920  20.511  1.00  0.00     0.154 C 
HETATM    8  C   LIG     1      20.124  38.897  19.778  1.00  0.00     0.029 C 
ENDBRANCH   3   7
BRANCH   3   9
HETATM    9  N   LIG     1      18.612  36.601  19.667  1.00  0.00    -0.008 NA
HETATM   10  O   LIG     1      18.077  36.480  18.545  1.00  0.00    -0.041 OA
ENDBRANCH   3   9
TORSDOF 2
ENDMDL
MODEL 8
REMARK VINA RESULT:      -4.3      2.357      3.378
REMARK  2 active torsions:
REMARK  status: ('A' for Active; 'I' for Inactive)
REMARK       I    between atoms: N_1  and  C_2 
REMARK       I    between atoms: C_2  and  N_3 
REMARK    1  A    between atoms: N_3  and  C_6 
REMARK    2  A    between atoms: N_3  and  N_4 
ROOT
HETATM    1  N   LIG     1      16.320  38.703  23.294  1.00  0.00    -0.350 N 
HETATM    2  C   LIG     1      16.943  37.555  22.714  1.00  0.00     0.338 C 
HETATM    3  N   LIG     1      17.112  36.340  23.471  1.00  0.00    -0.196 N 
HETATM    4  O   LIG     1      17.343  37.613  21.520  1.00  0.00    -0.245 OA
HETATM    5  H   LIG     1      15.870  38.659  24.235  1.00  0.00     0.160 HD
HETATM    6  H   LIG     1      16.246  39.590  22.748  1.00  0.00     0.160 HD
ENDROOT
BRANCH   3   7
HETATM    7  C   LIG     1      17.233  36.385  24.933  1.00  0.00     0.154 C 
HETATM    8  C   LIG     1      17.489  34.996  25.514  1.00  0.00     0.029 C 
ENDBRANCH   3   7
BRANCH   3   9
HETATM    9  N   LIG     1      17.042  35.083  22.838  1.00  0.00    -0.008 NA
HETATM   10  O   LIG     1      16.075  34.761  22.116  1.00  0.00    -0.041 OA
ENDBRANCH   3   9
TORSDOF 2
ENDMDL
MODEL 9
REMARK VINA RESULT:      -4.3      4.196      4.837
REMARK  2 active torsions:
REMARK  status: ('A' for Active; 'I' for Inactive)
REMARK       I    between atoms: N_1  and  C_2 
REMARK       I    between atoms: C_2  and  N_3 
REMARK    1  A    between atoms: N_3  and  C_6 
REMARK    2  A    between atoms: N_3  and  N_4 
ROOT
HETATM    1  N   LIG     1      17.504  36.057  20.865  1.00  0.00    -0.350 N 
HETATM    2  C   LIG     1      18.361  36.950  20.150  1.00  0.00     0.338 C 
HETATM    3  N   LIG     1      18.670  38.259  20.669  1.00  0.00    -0.196 N 
HETATM    4  O   LIG     1      18.854  36.577  19.051  1.00  0.00    -0.245 OA
HETATM    5  H   LIG     1      17.172  36.279  21.829  1.00  0.00     0.160 HD
HETATM    6  H   LIG     1      17.253  35.130  20.454  1.00  0.00     0.160 HD
ENDROOT
BRANCH   3   7
HETATM    7  C   LIG     1      17.723  38.951  21.552  1.00  0.00     0.154 C 
HETATM    8  C   LIG     1      18.069  38.729  23.024  1.00  0.00     0.029 C 
ENDBRANCH   3   7
BRANCH   3   9
HETATM    9  N   LIG     1      19.931  38.843  20.441  1.00  0.00    -0.008 NA
HETATM   10  O   LIG     1      20.157  39.555  19.440  1.00  0.00    -0.041 OA
ENDBRANCH   3   9
TORSDOF 2
ENDMDL
MODEL 10
REMARK VINA RESULT:      -4.3      1.823      1.912
REMARK  2 active torsions:
REMARK  status: ('A' for Active; 'I' for Inactive)
REMARK       I    between atoms: N_1  and  C_2 
REMARK       I    between atoms: C_2  and  N_3 
REMARK    1  A    between atoms: N_3  and  C_6 
REMARK    2  A    between atoms: N_3  and  N_4 
ROOT
HETATM    1  N   LIG     1      18.902  37.850  24.759  1.00  0.00    -0.350 N 
HETATM    2  C   LIG     1      17.575  38.348  24.573  1.00  0.00     0.338 C 
HETATM    3  N   LIG     1      17.100  38.724  23.265  1.00  0.00    -0.196 N 
HETATM    4  O   LIG     1      16.816  38.454  25.573  1.00  0.00    -0.245 OA
HETATM    5  H   LIG     1      19.520  37.636  23.945  1.00  0.00     0.160 HD
HETATM    6  H   LIG     1      19.247  37.625  25.718  1.00  0.00     0.160 HD
ENDROOT
BRANCH   3   7
HETATM    7  C   LIG     1      18.039  39.185  22.236  1.00  0.00     0.154 C 
HETATM    8  C   LIG     1      18.248  38.124  21.156  1.00  0.00     0.029 C 
ENDBRANCH   3   7
BRANCH   3   9
HETATM    9  N   LIG     1      15.748  38.540  22.912  1.00  0.00    -0.008 NA
HETATM   10  O   LIG     1      15.293  37.418  22.608  1.00  0.00    -0.041 OA
ENDBRANCH   3   9
TORSDOF 2
ENDMDL
MODEL 11
REMARK VINA RESULT:      -4.2      9.631     10.317
REMARK  2 active torsions:
REMARK  status: ('A' for Active; 'I' for Inactive)
REMARK       I    between atoms: N_1  and  C_2 
REMARK       I    between atoms: C_2  and  N_3 
REMARK    1  A    between atoms: N_3  and  C_6 
REMARK    2  A    between atoms: N_3  and  N_4 
ROOT
HETATM    1  N   LIG     1      12.420  30.486  16.666  1.00  0.00    -0.350 N 
HETATM    2  C   LIG     1      13.666  31.163  16.850  1.00  0.00     0.338 C 
HETATM    3  N   LIG     1      14.616  31.275  15.772  1.00  0.00    -0.196 N 
HETATM    4  O   LIG     1      13.927  31.669  17.974  1.00  0.00    -0.245 OA
HETATM    5  H   LIG     1      12.115  30.158  15.723  1.00  0.00     0.160 HD
HETATM    6  H   LIG     1      11.761  30.373  17.468  1.00  0.00     0.160 HD
ENDROOT
BRANCH   3   7
HETATM    7  C   LIG     1      14.661  30.262  14.711  1.00  0.00     0.154 C 
HETATM    8  C   LIG     1      15.378  30.788  13.468  1.00  0.00     0.029 C 
ENDBRANCH   3   7
BRANCH   3   9
HETATM    9  N   LIG     1      15.432  32.417  15.650  1.00  0.00    -0.008 NA
HETATM   10  O   LIG     1      16.547  32.494  16.207  1.00  0.00    -0.041 OA
ENDBRANCH   3   9
TORSDOF 2
ENDMDL
MODEL 12
REMARK VINA RESULT:      -4.2      8.629      9.503
REMARK  2 active torsions:
REMARK  status: ('A' for Active; 'I' for Inactive)
REMARK       I    between atoms: N_1  and  C_2 
REMARK       I    between atoms: C_2  and  N_3 
REMARK    1  A    between atoms: N_3  and  C_6 
REMARK    2  A    between atoms: N_3  and  N_4 
ROOT
HETATM    1  N   LIG     1      16.979  32.872  15.489  1.00  0.00    -0.350 N 
HETATM    2  C   LIG     1      15.735  33.153  16.136  1.00  0.00     0.338 C 
HETATM    3  N   LIG     1      14.739  32.125  16.308  1.00  0.00    -0.196 N 
HETATM    4  O   LIG     1      15.517  34.319  16.562  1.00  0.00    -0.245 OA
HETATM    5  H   LIG     1      17.247  31.897  15.229  1.00  0.00     0.160 HD
HETATM    6  H   LIG     1      17.672  33.637  15.331  1.00  0.00     0.160 HD
ENDROOT
BRANCH   3   7
HETATM    7  C   LIG     1      14.660  31.001  15.368  1.00  0.00     0.154 C 
HETATM    8  C   LIG     1      13.269  30.369  15.371  1.00  0.00     0.029 C 
ENDBRANCH   3   7
BRANCH   3   9
HETATM    9  N   LIG     1      13.907  32.115  17.445  1.00  0.00    -0.008 NA
HETATM   10  O   LIG     1      14.251  31.561  18.509  1.00  0.00    -0.041 OA
ENDBRANCH   3   9
TORSDOF 2
ENDMDL
MODEL 13
REMARK VINA RESULT:      -4.2      3.934      4.579
REMARK  2 active torsions:
REMARK  status: ('A' for Active; 'I' for Inactive)
REMARK       I    between atoms: N_1  and  C_2 
REMARK       I    between atoms: C_2  and  N_3 
REMARK    1  A    between atoms: N_3  and  C_6 
REMARK    2  A    between atoms: N_3  and  N_4 
ROOT
HETATM    1  N   LIG     1      14.817  34.605  21.345  1.00  0.00    -0.350 N 
HETATM    2  C   LIG     1      15.787  35.161  20.455  1.00  0.00     0.338 C 
HETATM    3  N   LIG     1      16.785  36.086  20.928  1.00  0.00    -0.196 N 
HETATM    4  O   LIG     1      15.763  34.829  19.239  1.00  0.00    -0.245 OA
HETATM    5  H   LIG     1      14.874  34.760  22.376  1.00  0.00     0.160 HD
HETATM    6  H   LIG     1      14.072  33.971  20.979  1.00  0.00     0.160 HD
ENDROOT
BRANCH   3   7
HETATM    7  C   LIG     1      16.519  36.936  22.095  1.00  0.00     0.154 C 
HETATM    8  C   LIG     1      17.313  38.239  22.029  1.00  0.00     0.029 C 
ENDBRANCH   3   7
BRANCH   3   9
HETATM    9  N   LIG     1      18.075  36.105  20.360  1.00  0.00    -0.008 NA
HETATM   10  O   LIG     1      18.286  36.563  19.218  1.00  0.00    -0.041 OA
ENDBRANCH   3   9
TORSDOF 2
ENDMDL
MODEL 14
REMARK VINA RESULT:      -4.2      2.549      2.658
REMARK  2 active torsions:
REMARK  status: ('A' for Active; 'I' for Inactive)
REMARK       I    between atoms: N_1  and  C_2 
REMARK       I    between atoms: C_2  and  N_3 
REMARK    1  A    between atoms: N_3  and  C_6 
REMARK    2  A    between atoms: N_3  and  N_4 
ROOT
HETATM    1  N   LIG     1      18.236  37.104  26.181  1.00  0.00    -0.350 N 
HETATM    2  C   LIG     1      17.638  36.043  25.433  1.00  0.00     0.338 C 
HETATM    3  N   LIG     1      17.088  36.278  24.121  1.00  0.00    -0.196 N 
HETATM    4  O   LIG     1      17.598  34.888  25.934  1.00  0.00    -0.245 OA
HETATM    5  H   LIG     1      18.395  38.044  25.757  1.00  0.00     0.160 HD
HETATM    6  H   LIG     1      18.589  36.929  27.148  1.00  0.00     0.160 HD
ENDROOT
BRANCH   3   7
HETATM    7  C   LIG     1      16.574  37.603  23.756  1.00  0.00     0.154 C 
HETATM    8  C   LIG     1      17.461  38.277  22.712  1.00  0.00     0.029 C 
ENDBRANCH   3   7
BRANCH   3   9
HETATM    9  N   LIG     1      17.147  35.279  23.129  1.00  0.00    -0.008 NA
HETATM   10  O   LIG     1      16.178  35.036  22.380  1.00  0.00    -0.041 OA
ENDBRANCH   3   9
TORSDOF 2
ENDMDL
MODEL 15
REMARK VINA RESULT:      -4.2      1.437      2.674
REMARK  2 active torsions:
REMARK  status: ('A' for Active; 'I' for Inactive)
REMARK       I    between atoms: N_1  and  C_2 
REMARK       I    between atoms: C_2  and  N_3 
REMARK    1  A    between atoms: N_3  and  C_6 
REMARK    2  A    between atoms: N_3  and  N_4 
ROOT
HETATM    1  N   LIG     1      17.838  38.318  21.422  1.00  0.00    -0.350 N 
HETATM    2  C   LIG     1      16.891  38.405  22.489  1.00  0.00     0.338 C 
HETATM    3  N   LIG     1      16.798  37.369  23.486  1.00  0.00    -0.196 N 
HETATM    4  O   LIG     1      16.132  39.410  22.552  1.00  0.00    -0.245 OA
HETATM    5  H   LIG     1      18.561  37.566  21.399  1.00  0.00     0.160 HD
HETATM    6  H   LIG     1      17.862  39.054  20.681  1.00  0.00     0.160 HD
ENDROOT
BRANCH   3   7
HETATM    7  C   LIG     1      17.176  35.988  23.163  1.00  0.00     0.154 C 
HETATM    8  C   LIG     1      16.234  35.381  22.125  1.00  0.00     0.029 C 
ENDBRANCH   3   7
BRANCH   3   9
HETATM    9  N   LIG     1      16.462  37.683  24.819  1.00  0.00    -0.008 NA
HETATM   10  O   LIG     1      17.143  38.474  25.502  1.00  0.00    -0.041 OA
ENDBRANCH   3   9
TORSDOF 2
ENDMDL
MODEL 16
REMARK VINA RESULT:      -4.1      9.079     10.139
REMARK  2 active torsions:
REMARK  status: ('A' for Active; 'I' for Inactive)
REMARK       I    between atoms: N_1  and  C_2 
REMARK       I    between atoms: C_2  and  N_3 
REMARK    1  A    between atoms: N_3  and  C_6 
REMARK    2  A    between atoms: N_3  and  N_4 
ROOT
HETATM    1  N   LIG     1      15.160  30.095  14.580  1.00  0.00    -0.350 N 
HETATM    2  C   LIG     1      15.622  31.446  14.640  1.00  0.00     0.338 C 
HETATM    3  N   LIG     1      15.343  32.276  15.785  1.00  0.00    -0.196 N 
HETATM    4  O   LIG     1      16.287  31.909  13.675  1.00  0.00    -0.245 OA
HETATM    5  H   LIG     1      14.711  29.638  15.403  1.00  0.00     0.160 HD
HETATM    6  H   LIG     1      15.331  29.521  13.724  1.00  0.00     0.160 HD
ENDROOT
BRANCH   3   7
HETATM    7  C   LIG     1      14.148  32.038  16.603  1.00  0.00     0.154 C 
HETATM    8  C   LIG     1      14.497  31.945  18.087  1.00  0.00     0.029 C 
ENDBRANCH   3   7
BRANCH   3   9
HETATM    9  N   LIG     1      16.271  33.247  16.212  1.00  0.00    -0.008 NA
HETATM   10  O   LIG     1      16.024  34.469  16.147  1.00  0.00    -0.041 OA
ENDBRANCH   3   9
TORSDOF 2
ENDMDL
MODEL 17
REMARK VINA RESULT:      -4.1      3.926      4.590
REMARK  2 active torsions:
REMARK  status: ('A' for Active; 'I' for Inactive)
REMARK       I    between atoms: N_1  and  C_2 
REMARK       I    between atoms: C_2  and  N_3 
REMARK    1  A    between atoms: N_3  and  C_6 
REMARK    2  A    between atoms: N_3  and  N_4 
ROOT
HETATM    1  N   LIG     1      18.691  38.526  20.123  1.00  0.00    -0.350 N 
HETATM    2  C   LIG     1      18.536  37.105  20.101  1.00  0.00     0.338 C 
HETATM    3  N   LIG     1      17.512  36.458  20.882  1.00  0.00    -0.196 N 
HETATM    4  O   LIG     1      19.309  36.417  19.381  1.00  0.00    -0.245 OA
HETATM    5  H   LIG     1      18.001  39.140  20.610  1.00  0.00     0.160 HD
HETATM    6  H   LIG     1      19.466  38.977  19.587  1.00  0.00     0.160 HD
ENDROOT
BRANCH   3   7
HETATM    7  C   LIG     1      17.021  37.073  22.121  1.00  0.00     0.154 C 
HETATM    8  C   LIG     1      16.941  36.053  23.255  1.00  0.00     0.029 C 
ENDBRANCH   3   7
BRANCH   3   9
HETATM    9  N   LIG     1      16.879  35.291  20.410  1.00  0.00    -0.008 NA
HETATM   10  O   LIG     1      16.172  35.293  19.382  1.00  0.00    -0.041 OA
ENDBRANCH   3   9
TORSDOF 2
ENDMDL
MODEL 18
REMARK VINA RESULT:      -4.0      9.296     10.121
REMARK  2 active torsions:
REMARK  status: ('A' for Active; 'I' for Inactive)
REMARK       I    between atoms: N_1  and  C_2 
REMARK       I    between atoms: C_2  and  N_3 
REMARK    1  A    between atoms: N_3  and  C_6 
REMARK    2  A    between atoms: N_3  and  N_4 
ROOT
HETATM    1  N   LIG     1      14.059  31.829  18.416  1.00  0.00    -0.350 N 
HETATM    2  C   LIG     1      13.685  31.575  17.060  1.00  0.00     0.338 C 
HETATM    3  N   LIG     1      14.613  31.797  15.980  1.00  0.00    -0.196 N 
HETATM    4  O   LIG     1      12.525  31.146  16.816  1.00  0.00    -0.245 OA
HETATM    5  H   LIG     1      15.042  32.070  18.671  1.00  0.00     0.160 HD
HETATM    6  H   LIG     1      13.362  31.707  19.184  1.00  0.00     0.160 HD
ENDROOT
BRANCH   3   7
HETATM    7  C   LIG     1      15.675  32.801  16.106  1.00  0.00     0.154 C 
HETATM    8  C   LIG     1      16.883  32.447  15.241  1.00  0.00     0.029 C 
ENDBRANCH   3   7
BRANCH   3   9
HETATM    9  N   LIG     1      14.594  30.974  14.836  1.00  0.00    -0.008 NA
HETATM   10  O   LIG     1      14.762  29.739  14.909  1.00  0.00    -0.041 OA
ENDBRANCH   3   9
TORSDOF 2
ENDMDL
MODEL 19
REMARK VINA RESULT:      -4.0      6.843      7.467
REMARK  2 active torsions:
REMARK  status: ('A' for Active; 'I' for Inactive)
REMARK       I    between atoms: N_1  and  C_2 
REMARK       I    between atoms: C_2  and  N_3 
REMARK    1  A    between atoms: N_3  and  C_6 
REMARK    2  A    between atoms: N_3  and  N_4 
ROOT
HETATM    1  N   LIG     1      14.851  30.696  20.220  1.00  0.00    -0.350 N 
HETATM    2  C   LIG     1      14.585  31.581  19.130  1.00  0.00     0.338 C 
HETATM    3  N   LIG     1      15.191  32.888  19.069  1.00  0.00    -0.196 N 
HETATM    4  O   LIG     1      13.811  31.204  18.210  1.00  0.00    -0.245 OA
HETATM    5  H   LIG     1      15.574  30.922  20.938  1.00  0.00     0.160 HD
HETATM    6  H   LIG     1      14.370  29.771  20.273  1.00  0.00     0.160 HD
ENDROOT
BRANCH   3   7
HETATM    7  C   LIG     1      15.574  33.588  20.301  1.00  0.00     0.154 C 
HETATM    8  C   LIG     1      15.791  35.079  20.050  1.00  0.00     0.029 C 
ENDBRANCH   3   7
BRANCH   3   9
HETATM    9  N   LIG     1      15.538  33.462  17.830  1.00  0.00    -0.008 NA
HETATM   10  O   LIG     1      16.119  32.808  16.940  1.00  0.00    -0.041 OA
ENDBRANCH   3   9
TORSDOF 2
ENDMDL
MODEL 20
REMARK VINA RESULT:      -3.7      7.280      8.169
REMARK  2 active torsions:
REMARK  status: ('A' for Active; 'I' for Inactive)
REMARK       I    between atoms: N_1  and  C_2 
REMARK       I    between atoms: C_2  and  N_3 
REMARK    1  A    between atoms: N_3  and  C_6 
REMARK    2  A    between atoms: N_3  and  N_4 
ROOT
HETATM    1  N   LIG     1      15.345  34.790  18.735  1.00  0.00    -0.350 N 
HETATM    2  C   LIG     1      15.237  33.874  17.643  1.00  0.00     0.338 C 
HETATM    3  N   LIG     1      14.592  32.596  17.807  1.00  0.00    -0.196 N 
HETATM    4  O   LIG     1      15.712  34.200  16.522  1.00  0.00    -0.245 OA
HETATM    5  H   LIG     1      14.863  34.610  19.643  1.00  0.00     0.160 HD
HETATM    6  H   LIG     1      15.855  35.693  18.613  1.00  0.00     0.160 HD
ENDROOT
BRANCH   3   7
HETATM    7  C   LIG     1      14.571  31.936  19.118  1.00  0.00     0.154 C 
HETATM    8  C   LIG     1      15.981  31.768  19.680  1.00  0.00     0.029 C 
ENDBRANCH   3   7
BRANCH   3   9
HETATM    9  N   LIG     1      13.866  32.016  16.747  1.00  0.00    -0.008 NA
HETATM   10  O   LIG     1      12.931  31.214  16.949  1.00  0.00    -0.041 OA
ENDBRANCH   3   9
TORSDOF 2
ENDMDL
