MODEL 1
REMARK VINA RESULT:      -4.5      0.000      0.000
REMARK  1 active torsions:
REMARK  status: ('A' for Active; 'I' for Inactive)
REMARK    1  A    between atoms: C_1  and  C_4 
ROOT
HETATM    1  C   LIG     1      16.500  36.314  21.993  1.00  0.00     0.218 C 
HETATM    2 CL   LIG     1      14.920  35.805  21.338  1.00  0.00    -0.081 Cl
HETATM    3 CL   LIG     1      17.657  36.353  20.634  1.00  0.00    -0.081 Cl
HETATM    4 CL   LIG     1      17.049  35.088  23.171  1.00  0.00    -0.081 Cl
ENDROOT
BRANCH   1   5
HETATM    5  C   LIG     1      16.387  37.709  22.639  1.00  0.00     0.232 C 
HETATM    6 CL   LIG     1      17.535  38.871  21.915  1.00  0.00    -0.104 Cl
HETATM    7 CL   LIG     1      16.684  37.649  24.401  1.00  0.00    -0.104 Cl
ENDBRANCH   1   5
TORSDOF 1
ENDMDL
MODEL 2
REMARK VINA RESULT:      -4.4      1.706      2.974
REMARK  1 active torsions:
REMARK  status: ('A' for Active; 'I' for Inactive)
REMARK    1  A    between atoms: C_1  and  C_4 
ROOT
HETATM    1  C   LIG     1      16.934  37.164  23.109  1.00  0.00     0.218 C 
HETATM    2 CL   LIG     1      18.074  38.492  22.760  1.00  0.00    -0.081 Cl
HETATM    3 CL   LIG     1      17.293  35.836  21.971  1.00  0.00    -0.081 Cl
HETATM    4 CL   LIG     1      15.273  37.744  22.799  1.00  0.00    -0.081 Cl
ENDROOT
BRANCH   1   5
HETATM    5  C   LIG     1      17.103  36.682  24.563  1.00  0.00     0.232 C 
HETATM    6 CL   LIG     1      18.484  37.478  25.371  1.00  0.00    -0.104 Cl
HETATM    7 CL   LIG     1      17.343  34.913  24.652  1.00  0.00    -0.104 Cl
ENDBRANCH   1   5
TORSDOF 1
ENDMDL
MODEL 3
REMARK VINA RESULT:      -4.2      1.339      2.597
REMARK  1 active torsions:
REMARK  status: ('A' for Active; 'I' for Inactive)
REMARK    1  A    between atoms: C_1  and  C_4 
ROOT
HETATM    1  C   LIG     1      16.992  37.284  22.720  1.00  0.00     0.218 C 
HETATM    2 CL   LIG     1      15.266  37.727  22.823  1.00  0.00    -0.081 Cl
HETATM    3 CL   LIG     1      17.089  35.502  22.701  1.00  0.00    -0.081 Cl
HETATM    4 CL   LIG     1      17.821  37.882  24.185  1.00  0.00    -0.081 Cl
ENDROOT
BRANCH   1   5
HETATM    5  C   LIG     1      17.618  37.868  21.438  1.00  0.00     0.232 C 
HETATM    6 CL   LIG     1      18.299  36.590  20.390  1.00  0.00    -0.104 Cl
HETATM    7 CL   LIG     1      18.916  39.041  21.808  1.00  0.00    -0.104 Cl
ENDBRANCH   1   5
TORSDOF 1
ENDMDL
MODEL 4
REMARK VINA RESULT:      -4.2      0.737      2.476
REMARK  1 active torsions:
REMARK  status: ('A' for Active; 'I' for Inactive)
REMARK    1  A    between atoms: C_1  and  C_4 
ROOT
HETATM    1  C   LIG     1      16.830  36.443  22.264  1.00  0.00     0.218 C 
HETATM    2 CL   LIG     1      17.082  34.956  23.219  1.00  0.00    -0.081 Cl
HETATM    3 CL   LIG     1      15.087  36.553  21.894  1.00  0.00    -0.081 Cl
HETATM    4 CL   LIG     1      17.728  36.291  20.727  1.00  0.00    -0.081 Cl
ENDROOT
BRANCH   1   5
HETATM    5  C   LIG     1      17.285  37.678  23.066  1.00  0.00     0.232 C 
HETATM    6 CL   LIG     1      16.917  37.512  24.807  1.00  0.00    -0.104 Cl
HETATM    7 CL   LIG     1      16.516  39.177  22.470  1.00  0.00    -0.104 Cl
ENDBRANCH   1   5
TORSDOF 1
ENDMDL
MODEL 5
REMARK VINA RESULT:      -4.2      1.215      3.484
REMARK  1 active torsions:
REMARK  status: ('A' for Active; 'I' for Inactive)
REMARK    1  A    between atoms: C_1  and  C_4 
ROOT
HETATM    1  C   LIG     1      17.205  37.980  22.544  1.00  0.00     0.218 C 
HETATM    2 CL   LIG     1      15.768  39.037  22.504  1.00  0.00    -0.081 Cl
HETATM    3 CL   LIG     1      17.543  37.598  24.255  1.00  0.00    -0.081 Cl
HETATM    4 CL   LIG     1      18.595  38.884  21.879  1.00  0.00    -0.081 Cl
ENDROOT
BRANCH   1   5
HETATM    5  C   LIG     1      16.939  36.686  21.750  1.00  0.00     0.232 C 
HETATM    6 CL   LIG     1      17.025  35.237  22.792  1.00  0.00    -0.104 Cl
HETATM    7 CL   LIG     1      18.102  36.481  20.407  1.00  0.00    -0.104 Cl
ENDBRANCH   1   5
TORSDOF 1
ENDMDL
MODEL 6
REMARK VINA RESULT:      -4.1      1.213      2.586
REMARK  1 active torsions:
REMARK  status: ('A' for Active; 'I' for Inactive)
REMARK    1  A    between atoms: C_1  and  C_4 
ROOT
HETATM    1  C   LIG     1      16.591  36.452  21.995  1.00  0.00     0.218 C 
HETATM    2 CL   LIG     1      15.850  35.582  20.625  1.00  0.00    -0.081 Cl
HETATM    3 CL   LIG     1      17.020  35.239  23.232  1.00  0.00    -0.081 Cl
HETATM    4 CL   LIG     1      15.374  37.563  22.688  1.00  0.00    -0.081 Cl
ENDROOT
BRANCH   1   5
HETATM    5  C   LIG     1      17.849  37.211  21.530  1.00  0.00     0.232 C 
HETATM    6 CL   LIG     1      17.607  38.981  21.561  1.00  0.00    -0.104 Cl
HETATM    7 CL   LIG     1      18.334  36.739  19.875  1.00  0.00    -0.104 Cl
ENDBRANCH   1   5
TORSDOF 1
ENDMDL
MODEL 7
REMARK VINA RESULT:      -4.0      1.353      3.333
REMARK  1 active torsions:
REMARK  status: ('A' for Active; 'I' for Inactive)
REMARK    1  A    between atoms: C_1  and  C_4 
ROOT
HETATM    1  C   LIG     1      16.831  37.059  22.470  1.00  0.00     0.218 C 
HETATM    2 CL   LIG     1      18.031  38.381  22.476  1.00  0.00    -0.081 Cl
HETATM    3 CL   LIG     1      15.235  37.782  22.809  1.00  0.00    -0.081 Cl
HETATM    4 CL   LIG     1      17.232  35.922  23.789  1.00  0.00    -0.081 Cl
ENDROOT
BRANCH   1   5
HETATM    5  C   LIG     1      16.819  36.354  21.099  1.00  0.00     0.232 C 
HETATM    6 CL   LIG     1      16.513  34.600  21.257  1.00  0.00    -0.104 Cl
HETATM    7 CL   LIG     1      18.362  36.578  20.224  1.00  0.00    -0.104 Cl
ENDBRANCH   1   5
TORSDOF 1
ENDMDL
MODEL 8
REMARK VINA RESULT:      -4.0      1.124      3.123
REMARK  1 active torsions:
REMARK  status: ('A' for Active; 'I' for Inactive)
REMARK    1  A    between atoms: C_1  and  C_4 
ROOT
HETATM    1  C   LIG     1      17.104  37.769  22.564  1.00  0.00     0.218 C 
HETATM    2 CL   LIG     1      17.763  37.779  24.223  1.00  0.00    -0.081 Cl
HETATM    3 CL   LIG     1      18.337  38.487  21.492  1.00  0.00    -0.081 Cl
HETATM    4 CL   LIG     1      15.647  38.804  22.525  1.00  0.00    -0.081 Cl
ENDROOT
BRANCH   1   5
HETATM    5  C   LIG     1      16.785  36.328  22.123  1.00  0.00     0.232 C 
HETATM    6 CL   LIG     1      15.083  36.152  21.607  1.00  0.00    -0.104 Cl
HETATM    7 CL   LIG     1      17.099  35.149  23.430  1.00  0.00    -0.104 Cl
ENDBRANCH   1   5
TORSDOF 1
ENDMDL
MODEL 9
REMARK VINA RESULT:      -3.9      0.870      2.587
REMARK  1 active torsions:
REMARK  status: ('A' for Active; 'I' for Inactive)
REMARK    1  A    between atoms: C_1  and  C_4 
ROOT
HETATM    1  C   LIG     1      16.719  36.700  22.836  1.00  0.00     0.218 C 
HETATM    2 CL   LIG     1      16.597  37.651  24.342  1.00  0.00    -0.081 Cl
HETATM    3 CL   LIG     1      15.126  36.759  22.033  1.00  0.00    -0.081 Cl
HETATM    4 CL   LIG     1      17.078  35.003  23.263  1.00  0.00    -0.081 Cl
ENDROOT
BRANCH   1   5
HETATM    5  C   LIG     1      17.804  37.293  21.916  1.00  0.00     0.232 C 
HETATM    6 CL   LIG     1      17.540  39.035  21.613  1.00  0.00    -0.104 Cl
HETATM    7 CL   LIG     1      17.869  36.453  20.340  1.00  0.00    -0.104 Cl
ENDBRANCH   1   5
TORSDOF 1
ENDMDL
MODEL 10
REMARK VINA RESULT:      -3.6      6.887      8.446
REMARK  1 active torsions:
REMARK  status: ('A' for Active; 'I' for Inactive)
REMARK    1  A    between atoms: C_1  and  C_4 
ROOT
HETATM    1  C   LIG     1      14.235  32.278  16.995  1.00  0.00     0.218 C 
HETATM    2 CL   LIG     1      12.467  32.210  16.767  1.00  0.00    -0.081 Cl
HETATM    3 CL   LIG     1      14.585  31.721  18.654  1.00  0.00    -0.081 Cl
HETATM    4 CL   LIG     1      14.763  33.979  16.844  1.00  0.00    -0.081 Cl
ENDROOT
BRANCH   1   5
HETATM    5  C   LIG     1      14.943  31.374  15.967  1.00  0.00     0.232 C 
HETATM    6 CL   LIG     1      15.884  32.325  14.782  1.00  0.00    -0.104 Cl
HETATM    7 CL   LIG     1      13.781  30.353  15.071  1.00  0.00    -0.104 Cl
ENDBRANCH   1   5
TORSDOF 1
ENDMDL
MODEL 11
REMARK VINA RESULT:      -3.6      6.883      8.449
REMARK  1 active torsions:
REMARK  status: ('A' for Active; 'I' for Inactive)
REMARK    1  A    between atoms: C_1  and  C_4 
ROOT
HETATM    1  C   LIG     1      14.226  32.277  16.995  1.00  0.00     0.218 C 
HETATM    2 CL   LIG     1      14.597  31.742  18.657  1.00  0.00    -0.081 Cl
HETATM    3 CL   LIG     1      14.760  33.974  16.845  1.00  0.00    -0.081 Cl
HETATM    4 CL   LIG     1      12.455  32.217  16.761  1.00  0.00    -0.081 Cl
ENDROOT
BRANCH   1   5
HETATM    5  C   LIG     1      14.961  31.392  15.971  1.00  0.00     0.232 C 
HETATM    6 CL   LIG     1      15.909  32.366  14.810  1.00  0.00    -0.104 Cl
HETATM    7 CL   LIG     1      13.828  30.363  15.047  1.00  0.00    -0.104 Cl
ENDBRANCH   1   5
TORSDOF 1
ENDMDL
MODEL 12
REMARK VINA RESULT:      -3.4      6.440      8.074
REMARK  1 active torsions:
REMARK  status: ('A' for Active; 'I' for Inactive)
REMARK    1  A    between atoms: C_1  and  C_4 
ROOT
HETATM    1  C   LIG     1      15.027  32.484  17.127  1.00  0.00     0.218 C 
HETATM    2 CL   LIG     1      15.561  32.289  18.818  1.00  0.00    -0.081 Cl
HETATM    3 CL   LIG     1      16.460  32.275  16.083  1.00  0.00    -0.081 Cl
HETATM    4 CL   LIG     1      14.409  34.147  16.914  1.00  0.00    -0.081 Cl
ENDROOT
BRANCH   1   5
HETATM    5  C   LIG     1      13.954  31.434  16.779  1.00  0.00     0.232 C 
HETATM    6 CL   LIG     1      14.272  30.657  15.201  1.00  0.00    -0.104 Cl
HETATM    7 CL   LIG     1      12.316  32.149  16.732  1.00  0.00    -0.104 Cl
ENDBRANCH   1   5
TORSDOF 1
ENDMDL
MODEL 13
REMARK VINA RESULT:      -3.3      5.202      6.647
REMARK  1 active torsions:
REMARK  status: ('A' for Active; 'I' for Inactive)
REMARK    1  A    between atoms: C_1  and  C_4 
ROOT
HETATM    1  C   LIG     1      14.955  32.741  17.324  1.00  0.00     0.218 C 
HETATM    2 CL   LIG     1      13.401  31.887  17.123  1.00  0.00    -0.081 Cl
HETATM    3 CL   LIG     1      14.649  34.481  17.066  1.00  0.00    -0.081 Cl
HETATM    4 CL   LIG     1      16.085  32.171  16.062  1.00  0.00    -0.081 Cl
ENDROOT
BRANCH   1   5
HETATM    5  C   LIG     1      15.519  32.501  18.738  1.00  0.00     0.232 C 
HETATM    6 CL   LIG     1      14.595  31.250  19.618  1.00  0.00    -0.104 Cl
HETATM    7 CL   LIG     1      15.513  33.997  19.717  1.00  0.00    -0.104 Cl
ENDBRANCH   1   5
TORSDOF 1
ENDMDL
MODEL 14
REMARK VINA RESULT:      -3.2      6.415      7.635
REMARK  1 active torsions:
REMARK  status: ('A' for Active; 'I' for Inactive)
REMARK    1  A    between atoms: C_1  and  C_4 
ROOT
HETATM    1  C   LIG     1      14.057  31.933  16.795  1.00  0.00     0.218 C 
HETATM    2 CL   LIG     1      12.342  32.420  16.720  1.00  0.00    -0.081 Cl
HETATM    3 CL   LIG     1      14.246  30.474  15.784  1.00  0.00    -0.081 Cl
HETATM    4 CL   LIG     1      14.455  31.509  18.484  1.00  0.00    -0.081 Cl
ENDROOT
BRANCH   1   5
HETATM    5  C   LIG     1      14.958  33.068  16.270  1.00  0.00     0.232 C 
HETATM    6 CL   LIG     1      16.543  32.455  15.714  1.00  0.00    -0.104 Cl
HETATM    7 CL   LIG     1      15.246  34.317  17.516  1.00  0.00    -0.104 Cl
ENDBRANCH   1   5
TORSDOF 1
ENDMDL
MODEL 15
REMARK VINA RESULT:      -3.1      6.786      8.102
REMARK  1 active torsions:
REMARK  status: ('A' for Active; 'I' for Inactive)
REMARK    1  A    between atoms: C_1  and  C_4 
ROOT
HETATM    1  C   LIG     1      14.143  31.749  16.814  1.00  0.00     0.218 C 
HETATM    2 CL   LIG     1      14.197  31.112  18.480  1.00  0.00    -0.081 Cl
HETATM    3 CL   LIG     1      12.626  32.675  16.643  1.00  0.00    -0.081 Cl
HETATM    4 CL   LIG     1      14.097  30.370  15.679  1.00  0.00    -0.081 Cl
ENDROOT
BRANCH   1   5
HETATM    5  C   LIG     1      15.358  32.659  16.549  1.00  0.00     0.232 C 
HETATM    6 CL   LIG     1      14.982  34.378  16.866  1.00  0.00    -0.104 Cl
HETATM    7 CL   LIG     1      15.942  32.513  14.866  1.00  0.00    -0.104 Cl
ENDBRANCH   1   5
TORSDOF 1
ENDMDL
MODEL 16
REMARK VINA RESULT:      -2.9      6.702      8.343
REMARK  1 active torsions:
REMARK  status: ('A' for Active; 'I' for Inactive)
REMARK    1  A    between atoms: C_1  and  C_4 
ROOT
HETATM    1  C   LIG     1      15.266  32.602  16.712  1.00  0.00     0.218 C 
HETATM    2 CL   LIG     1      16.822  32.496  15.843  1.00  0.00    -0.081 Cl
HETATM    3 CL   LIG     1      14.805  34.325  16.780  1.00  0.00    -0.081 Cl
HETATM    4 CL   LIG     1      15.506  32.012  18.381  1.00  0.00    -0.081 Cl
ENDROOT
BRANCH   1   5
HETATM    5  C   LIG     1      14.185  31.788  15.974  1.00  0.00     0.232 C 
HETATM    6 CL   LIG     1      13.294  30.707  17.084  1.00  0.00    -0.104 Cl
HETATM    7 CL   LIG     1      14.883  30.794  14.662  1.00  0.00    -0.104 Cl
ENDBRANCH   1   5
TORSDOF 1
ENDMDL
MODEL 17
REMARK VINA RESULT:      -2.9      8.922     10.294
REMARK  1 active torsions:
REMARK  status: ('A' for Active; 'I' for Inactive)
REMARK    1  A    between atoms: C_1  and  C_4 
ROOT
HETATM    1  C   LIG     1      14.685  30.019  14.393  1.00  0.00     0.218 C 
HETATM    2 CL   LIG     1      15.236  31.116  13.097  1.00  0.00    -0.081 Cl
HETATM    3 CL   LIG     1      15.750  28.587  14.373  1.00  0.00    -0.081 Cl
HETATM    4 CL   LIG     1      13.019  29.492  14.022  1.00  0.00    -0.081 Cl
ENDROOT
BRANCH   1   5
HETATM    5  C   LIG     1      14.764  30.725  15.761  1.00  0.00     0.232 C 
HETATM    6 CL   LIG     1      13.146  30.940  16.491  1.00  0.00    -0.104 Cl
HETATM    7 CL   LIG     1      15.541  32.330  15.636  1.00  0.00    -0.104 Cl
ENDBRANCH   1   5
TORSDOF 1
ENDMDL
MODEL 18
REMARK VINA RESULT:      -2.9     15.428     16.845
REMARK  1 active torsions:
REMARK  status: ('A' for Active; 'I' for Inactive)
REMARK    1  A    between atoms: C_1  and  C_4 
ROOT
HETATM    1  C   LIG     1      23.138  22.022  20.600  1.00  0.00     0.218 C 
HETATM    2 CL   LIG     1      21.793  22.978  21.278  1.00  0.00    -0.081 Cl
HETATM    3 CL   LIG     1      23.180  20.462  21.466  1.00  0.00    -0.081 Cl
HETATM    4 CL   LIG     1      24.668  22.889  20.918  1.00  0.00    -0.081 Cl
ENDROOT
BRANCH   1   5
HETATM    5  C   LIG     1      22.923  21.791  19.091  1.00  0.00     0.232 C 
HETATM    6 CL   LIG     1      22.726  20.056  18.707  1.00  0.00    -0.104 Cl
HETATM    7 CL   LIG     1      24.283  22.429  18.121  1.00  0.00    -0.104 Cl
ENDBRANCH   1   5
TORSDOF 1
ENDMDL
MODEL 19
REMARK VINA RESULT:      -2.8     17.732     18.757
REMARK  1 active torsions:
REMARK  status: ('A' for Active; 'I' for Inactive)
REMARK    1  A    between atoms: C_1  and  C_4 
ROOT
HETATM    1  C   LIG     1      26.814  31.171  36.801  1.00  0.00     0.218 C 
HETATM    2 CL   LIG     1      25.540  31.712  35.674  1.00  0.00    -0.081 Cl
HETATM    3 CL   LIG     1      26.189  29.743  37.671  1.00  0.00    -0.081 Cl
HETATM    4 CL   LIG     1      27.113  32.472  37.987  1.00  0.00    -0.081 Cl
ENDROOT
BRANCH   1   5
HETATM    5  C   LIG     1      28.095  30.807  36.025  1.00  0.00     0.232 C 
HETATM    6 CL   LIG     1      29.513  31.715  36.622  1.00  0.00    -0.104 Cl
HETATM    7 CL   LIG     1      27.923  31.122  34.274  1.00  0.00    -0.104 Cl
ENDBRANCH   1   5
TORSDOF 1
ENDMDL
MODEL 20
REMARK VINA RESULT:      -2.8      7.957      9.320
REMARK  1 active torsions:
REMARK  status: ('A' for Active; 'I' for Inactive)
REMARK    1  A    between atoms: C_1  and  C_4 
ROOT
HETATM    1  C   LIG     1      15.751  31.365  14.725  1.00  0.00     0.218 C 
HETATM    2 CL   LIG     1      15.814  32.181  13.140  1.00  0.00    -0.081 Cl
HETATM    3 CL   LIG     1      17.276  31.727  15.578  1.00  0.00    -0.081 Cl
HETATM    4 CL   LIG     1      15.658  29.601  14.453  1.00  0.00    -0.081 Cl
ENDROOT
BRANCH   1   5
HETATM    5  C   LIG     1      14.547  31.874  15.542  1.00  0.00     0.232 C 
HETATM    6 CL   LIG     1      15.038  32.438  17.166  1.00  0.00    -0.104 Cl
HETATM    7 CL   LIG     1      13.297  30.612  15.740  1.00  0.00    -0.104 Cl
ENDBRANCH   1   5
TORSDOF 1
ENDMDL
