REMARK  1 active torsions:
REMARK  status: ('A' for Active; 'I' for Inactive)
REMARK    1  A    between atoms: C_1  and  C_4 
ROOT
HETATM    1  C   LIG     1      -0.721  -0.086  -0.180  1.00  0.00     0.218 C 
HETATM    2 CL   LIG     1      -1.597   1.465  -0.290  1.00  0.00    -0.081 Cl
HETATM    3 CL   LIG     1      -0.950  -0.943  -1.729  1.00  0.00    -0.081 Cl
HETATM    4 CL   LIG     1      -1.456  -1.063   1.123  1.00  0.00    -0.081 Cl
ENDROOT
BRANCH   1   5
HETATM    5  C   LIG     1       0.778   0.163   0.077  1.00  0.00     0.232 C 
HETATM    6 CL   LIG     1       1.702  -1.365   0.152  1.00  0.00    -0.104 Cl
HETATM    7 CL   LIG     1       1.050   1.059   1.600  1.00  0.00    -0.104 Cl
ENDBRANCH   1   5
TORSDOF 1
