MODEL 1
REMARK VINA RESULT:      -5.2      0.000      0.000
REMARK  1 active torsions:
REMARK  status: ('A' for Active; 'I' for Inactive)
REMARK    1  A    between atoms: C_2  and  C_5 
ROOT
HETATM    1 CL   LIG     1      17.910  36.692  20.792  1.00  0.00    -0.040 Cl
HETATM    2  C   LIG     1      19.004  37.091  19.439  1.00  0.00     0.399 C 
HETATM    3  F   LIG     1      20.084  36.228  19.479  1.00  0.00    -0.179 F 
HETATM    4  F   LIG     1      18.330  36.905  18.245  1.00  0.00    -0.179 F 
ENDROOT
BRANCH   2   5
HETATM    5  C   LIG     1      19.501  38.536  19.538  1.00  0.00     0.399 C 
HETATM    6  F   LIG     1      19.065  39.249  18.436  1.00  0.00    -0.179 F 
HETATM    7  F   LIG     1      20.885  38.558  19.561  1.00  0.00    -0.179 F 
HETATM    8 CL   LIG     1      18.882  39.333  21.010  1.00  0.00    -0.040 Cl
ENDBRANCH   2   5
TORSDOF 1
ENDMDL
MODEL 2
REMARK VINA RESULT:      -5.2      6.479      7.252
REMARK  1 active torsions:
REMARK  status: ('A' for Active; 'I' for Inactive)
REMARK    1  A    between atoms: C_2  and  C_5 
ROOT
HETATM    1 CL   LIG     1      16.868  37.623  24.967  1.00  0.00    -0.040 Cl
HETATM    2  C   LIG     1      17.892  36.557  25.967  1.00  0.00     0.399 C 
HETATM    3  F   LIG     1      19.216  36.906  25.767  1.00  0.00    -0.179 F 
HETATM    4  F   LIG     1      17.578  36.753  27.300  1.00  0.00    -0.179 F 
ENDROOT
BRANCH   2   5
HETATM    5  C   LIG     1      17.691  35.086  25.594  1.00  0.00     0.399 C 
HETATM    6  F   LIG     1      16.691  34.545  26.381  1.00  0.00    -0.179 F 
HETATM    7  F   LIG     1      18.861  34.379  25.813  1.00  0.00    -0.179 F 
HETATM    8 CL   LIG     1      17.218  34.913  23.881  1.00  0.00    -0.040 Cl
ENDBRANCH   2   5
TORSDOF 1
ENDMDL
MODEL 3
REMARK VINA RESULT:      -5.1      5.403      5.914
REMARK  1 active torsions:
REMARK  status: ('A' for Active; 'I' for Inactive)
REMARK    1  A    between atoms: C_2  and  C_5 
ROOT
HETATM    1 CL   LIG     1      18.597  36.635  26.160  1.00  0.00    -0.040 Cl
HETATM    2  C   LIG     1      17.974  37.811  24.971  1.00  0.00     0.399 C 
HETATM    3  F   LIG     1      17.220  38.757  25.642  1.00  0.00    -0.179 F 
HETATM    4  F   LIG     1      19.043  38.444  24.362  1.00  0.00    -0.179 F 
ENDROOT
BRANCH   2   5
HETATM    5  C   LIG     1      17.105  37.123  23.915  1.00  0.00     0.399 C 
HETATM    6  F   LIG     1      17.568  37.451  22.653  1.00  0.00    -0.179 F 
HETATM    7  F   LIG     1      15.794  37.550  24.031  1.00  0.00    -0.179 F 
HETATM    8 CL   LIG     1      17.156  35.347  24.093  1.00  0.00    -0.040 Cl
ENDBRANCH   2   5
TORSDOF 1
ENDMDL
MODEL 4
REMARK VINA RESULT:      -5.1      5.448      5.573
REMARK  1 active torsions:
REMARK  status: ('A' for Active; 'I' for Inactive)
REMARK    1  A    between atoms: C_2  and  C_5 
ROOT
HETATM    1 CL   LIG     1      17.151  35.316  24.048  1.00  0.00    -0.040 Cl
HETATM    2  C   LIG     1      17.105  37.097  23.940  1.00  0.00     0.399 C 
HETATM    3  F   LIG     1      17.600  37.475  22.705  1.00  0.00    -0.179 F 
HETATM    4  F   LIG     1      15.792  37.521  24.041  1.00  0.00    -0.179 F 
ENDROOT
BRANCH   2   5
HETATM    5  C   LIG     1      17.947  37.741  25.045  1.00  0.00     0.399 C 
HETATM    6  F   LIG     1      17.197  38.705  25.693  1.00  0.00    -0.179 F 
HETATM    7  F   LIG     1      19.066  38.344  24.495  1.00  0.00    -0.179 F 
HETATM    8 CL   LIG     1      18.471  36.528  26.246  1.00  0.00    -0.040 Cl
ENDBRANCH   2   5
TORSDOF 1
ENDMDL
MODEL 5
REMARK VINA RESULT:      -4.7      2.319      3.106
REMARK  1 active torsions:
REMARK  status: ('A' for Active; 'I' for Inactive)
REMARK    1  A    between atoms: C_2  and  C_5 
ROOT
HETATM    1 CL   LIG     1      17.402  36.813  21.662  1.00  0.00    -0.040 Cl
HETATM    2  C   LIG     1      18.098  38.455  21.580  1.00  0.00     0.399 C 
HETATM    3  F   LIG     1      17.061  39.370  21.542  1.00  0.00    -0.179 F 
HETATM    4  F   LIG     1      18.850  38.683  22.718  1.00  0.00    -0.179 F 
ENDROOT
BRANCH   2   5
HETATM    5  C   LIG     1      18.972  38.624  20.334  1.00  0.00     0.399 C 
HETATM    6  F   LIG     1      20.223  39.079  20.709  1.00  0.00    -0.179 F 
HETATM    7  F   LIG     1      18.400  39.550  19.479  1.00  0.00    -0.179 F 
HETATM    8 CL   LIG     1      19.168  37.075  19.469  1.00  0.00    -0.040 Cl
ENDBRANCH   2   5
TORSDOF 1
ENDMDL
MODEL 6
REMARK VINA RESULT:      -4.7      1.735      2.643
REMARK  1 active torsions:
REMARK  status: ('A' for Active; 'I' for Inactive)
REMARK    1  A    between atoms: C_2  and  C_5 
ROOT
HETATM    1 CL   LIG     1      17.703  37.251  21.241  1.00  0.00    -0.040 Cl
HETATM    2  C   LIG     1      18.766  38.572  20.682  1.00  0.00     0.399 C 
HETATM    3  F   LIG     1      17.978  39.659  20.349  1.00  0.00    -0.179 F 
HETATM    4  F   LIG     1      19.612  38.936  21.715  1.00  0.00    -0.179 F 
ENDROOT
BRANCH   2   5
HETATM    5  C   LIG     1      19.586  38.144  19.462  1.00  0.00     0.399 C 
HETATM    6  F   LIG     1      19.522  36.770  19.324  1.00  0.00    -0.179 F 
HETATM    7  F   LIG     1      20.909  38.512  19.631  1.00  0.00    -0.179 F 
HETATM    8 CL   LIG     1      18.959  38.894  17.968  1.00  0.00    -0.040 Cl
ENDBRANCH   2   5
TORSDOF 1
ENDMDL
MODEL 7
REMARK VINA RESULT:      -4.7      4.026      4.081
REMARK  1 active torsions:
REMARK  status: ('A' for Active; 'I' for Inactive)
REMARK    1  A    between atoms: C_2  and  C_5 
ROOT
HETATM    1 CL   LIG     1      17.029  35.291  23.306  1.00  0.00    -0.040 Cl
HETATM    2  C   LIG     1      16.709  36.681  22.232  1.00  0.00     0.399 C 
HETATM    3  F   LIG     1      17.514  36.565  21.113  1.00  0.00    -0.179 F 
HETATM    4  F   LIG     1      15.385  36.646  21.833  1.00  0.00    -0.179 F 
ENDROOT
BRANCH   2   5
HETATM    5  C   LIG     1      17.006  38.006  22.939  1.00  0.00     0.399 C 
HETATM    6  F   LIG     1      16.066  38.948  22.564  1.00  0.00    -0.179 F 
HETATM    7  F   LIG     1      18.262  38.463  22.576  1.00  0.00    -0.179 F 
HETATM    8 CL   LIG     1      16.946  37.820  24.713  1.00  0.00    -0.040 Cl
ENDBRANCH   2   5
TORSDOF 1
ENDMDL
MODEL 8
REMARK VINA RESULT:      -4.6      3.946      4.294
REMARK  1 active torsions:
REMARK  status: ('A' for Active; 'I' for Inactive)
REMARK    1  A    between atoms: C_2  and  C_5 
ROOT
HETATM    1 CL   LIG     1      15.195  35.567  21.254  1.00  0.00    -0.040 Cl
HETATM    2  C   LIG     1      16.793  36.015  21.913  1.00  0.00     0.399 C 
HETATM    3  F   LIG     1      17.174  35.054  22.832  1.00  0.00    -0.179 F 
HETATM    4  F   LIG     1      17.716  36.032  20.881  1.00  0.00    -0.179 F 
ENDROOT
BRANCH   2   5
HETATM    5  C   LIG     1      16.747  37.384  22.595  1.00  0.00     0.399 C 
HETATM    6  F   LIG     1      17.349  37.300  23.837  1.00  0.00    -0.179 F 
HETATM    7  F   LIG     1      15.432  37.783  22.764  1.00  0.00    -0.179 F 
HETATM    8 CL   LIG     1      17.608  38.615  21.630  1.00  0.00    -0.040 Cl
ENDBRANCH   2   5
TORSDOF 1
ENDMDL
MODEL 9
REMARK VINA RESULT:      -4.6      3.767      4.627
REMARK  1 active torsions:
REMARK  status: ('A' for Active; 'I' for Inactive)
REMARK    1  A    between atoms: C_2  and  C_5 
ROOT
HETATM    1 CL   LIG     1      17.684  38.610  21.665  1.00  0.00    -0.040 Cl
HETATM    2  C   LIG     1      16.795  37.279  22.456  1.00  0.00     0.399 C 
HETATM    3  F   LIG     1      17.342  37.070  23.709  1.00  0.00    -0.179 F 
HETATM    4  F   LIG     1      15.470  37.649  22.605  1.00  0.00    -0.179 F 
ENDROOT
BRANCH   2   5
HETATM    5  C   LIG     1      16.888  35.989  21.638  1.00  0.00     0.399 C 
HETATM    6  F   LIG     1      17.312  34.956  22.454  1.00  0.00    -0.179 F 
HETATM    7  F   LIG     1      17.801  36.146  20.610  1.00  0.00    -0.179 F 
HETATM    8 CL   LIG     1      15.302  35.549  20.945  1.00  0.00    -0.040 Cl
ENDBRANCH   2   5
TORSDOF 1
ENDMDL
MODEL 10
REMARK VINA RESULT:      -4.6      4.485      4.828
REMARK  1 active torsions:
REMARK  status: ('A' for Active; 'I' for Inactive)
REMARK    1  A    between atoms: C_2  and  C_5 
ROOT
HETATM    1 CL   LIG     1      17.187  35.646  23.613  1.00  0.00    -0.040 Cl
HETATM    2  C   LIG     1      17.260  37.405  23.905  1.00  0.00     0.399 C 
HETATM    3  F   LIG     1      16.068  37.805  24.480  1.00  0.00    -0.179 F 
HETATM    4  F   LIG     1      18.291  37.672  24.789  1.00  0.00    -0.179 F 
ENDROOT
BRANCH   2   5
HETATM    5  C   LIG     1      17.480  38.174  22.600  1.00  0.00     0.399 C 
HETATM    6  F   LIG     1      18.685  38.850  22.662  1.00  0.00    -0.179 F 
HETATM    7  F   LIG     1      16.463  39.095  22.418  1.00  0.00    -0.179 F 
HETATM    8 CL   LIG     1      17.521  37.069  21.199  1.00  0.00    -0.040 Cl
ENDBRANCH   2   5
TORSDOF 1
ENDMDL
MODEL 11
REMARK VINA RESULT:      -4.6      3.990      4.864
REMARK  1 active torsions:
REMARK  status: ('A' for Active; 'I' for Inactive)
REMARK    1  A    between atoms: C_2  and  C_5 
ROOT
HETATM    1 CL   LIG     1      17.152  37.056  24.397  1.00  0.00    -0.040 Cl
HETATM    2  C   LIG     1      16.661  37.336  22.704  1.00  0.00     0.399 C 
HETATM    3  F   LIG     1      15.380  37.858  22.698  1.00  0.00    -0.179 F 
HETATM    4  F   LIG     1      17.520  38.259  22.133  1.00  0.00    -0.179 F 
ENDROOT
BRANCH   2   5
HETATM    5  C   LIG     1      16.684  36.034  21.898  1.00  0.00     0.399 C 
HETATM    6  F   LIG     1      17.064  34.990  22.722  1.00  0.00    -0.179 F 
HETATM    7  F   LIG     1      17.597  36.137  20.862  1.00  0.00    -0.179 F 
HETATM    8 CL   LIG     1      15.075  35.665  21.221  1.00  0.00    -0.040 Cl
ENDBRANCH   2   5
TORSDOF 1
ENDMDL
MODEL 12
REMARK VINA RESULT:      -4.6      3.668      4.441
REMARK  1 active torsions:
REMARK  status: ('A' for Active; 'I' for Inactive)
REMARK    1  A    between atoms: C_2  and  C_5 
ROOT
HETATM    1 CL   LIG     1      15.349  37.786  22.774  1.00  0.00    -0.040 Cl
HETATM    2  C   LIG     1      16.999  37.123  22.613  1.00  0.00     0.399 C 
HETATM    3  F   LIG     1      17.866  38.166  22.340  1.00  0.00    -0.179 F 
HETATM    4  F   LIG     1      17.368  36.541  23.813  1.00  0.00    -0.179 F 
ENDROOT
BRANCH   2   5
HETATM    5  C   LIG     1      17.073  36.089  21.488  1.00  0.00     0.399 C 
HETATM    6  F   LIG     1      15.833  35.976  20.884  1.00  0.00    -0.179 F 
HETATM    7  F   LIG     1      17.430  34.855  22.003  1.00  0.00    -0.179 F 
HETATM    8 CL   LIG     1      18.265  36.568  20.248  1.00  0.00    -0.040 Cl
ENDBRANCH   2   5
TORSDOF 1
ENDMDL
MODEL 13
REMARK VINA RESULT:      -4.6      3.676      4.157
REMARK  1 active torsions:
REMARK  status: ('A' for Active; 'I' for Inactive)
REMARK    1  A    between atoms: C_2  and  C_5 
ROOT
HETATM    1 CL   LIG     1      18.264  36.540  20.261  1.00  0.00    -0.040 Cl
HETATM    2  C   LIG     1      17.056  36.064  21.486  1.00  0.00     0.399 C 
HETATM    3  F   LIG     1      15.816  35.992  20.876  1.00  0.00    -0.179 F 
HETATM    4  F   LIG     1      17.383  34.812  21.977  1.00  0.00    -0.179 F 
ENDROOT
BRANCH   2   5
HETATM    5  C   LIG     1      17.002  37.076  22.633  1.00  0.00     0.399 C 
HETATM    6  F   LIG     1      17.912  38.090  22.395  1.00  0.00    -0.179 F 
HETATM    7  F   LIG     1      17.329  36.456  23.826  1.00  0.00    -0.179 F 
HETATM    8 CL   LIG     1      15.376  37.798  22.780  1.00  0.00    -0.040 Cl
ENDBRANCH   2   5
TORSDOF 1
ENDMDL
MODEL 14
REMARK VINA RESULT:      -4.5      3.750      4.520
REMARK  1 active torsions:
REMARK  status: ('A' for Active; 'I' for Inactive)
REMARK    1  A    between atoms: C_2  and  C_5 
ROOT
HETATM    1 CL   LIG     1      18.407  38.692  20.892  1.00  0.00    -0.040 Cl
HETATM    2  C   LIG     1      17.416  38.318  22.329  1.00  0.00     0.399 C 
HETATM    3  F   LIG     1      18.198  38.487  23.458  1.00  0.00    -0.179 F 
HETATM    4  F   LIG     1      16.355  39.204  22.387  1.00  0.00    -0.179 F 
ENDROOT
BRANCH   2   5
HETATM    5  C   LIG     1      16.893  36.880  22.282  1.00  0.00     0.399 C 
HETATM    6  F   LIG     1      17.562  36.179  21.296  1.00  0.00    -0.179 F 
HETATM    7  F   LIG     1      15.540  36.880  21.987  1.00  0.00    -0.179 F 
HETATM    8 CL   LIG     1      17.148  36.049  23.841  1.00  0.00    -0.040 Cl
ENDBRANCH   2   5
TORSDOF 1
ENDMDL
MODEL 15
REMARK VINA RESULT:      -4.5      4.046      5.099
REMARK  1 active torsions:
REMARK  status: ('A' for Active; 'I' for Inactive)
REMARK    1  A    between atoms: C_2  and  C_5 
ROOT
HETATM    1 CL   LIG     1      16.539  37.597  22.410  1.00  0.00    -0.040 Cl
HETATM    2  C   LIG     1      16.771  35.908  21.881  1.00  0.00     0.399 C 
HETATM    3  F   LIG     1      17.805  35.874  20.963  1.00  0.00    -0.179 F 
HETATM    4  F   LIG     1      17.124  35.138  22.975  1.00  0.00    -0.179 F 
ENDROOT
BRANCH   2   5
HETATM    5  C   LIG     1      15.500  35.350  21.238  1.00  0.00     0.399 C 
HETATM    6  F   LIG     1      14.463  36.250  21.410  1.00  0.00    -0.179 F 
HETATM    7  F   LIG     1      15.153  34.153  21.840  1.00  0.00    -0.179 F 
HETATM    8 CL   LIG     1      15.727  35.077  19.488  1.00  0.00    -0.040 Cl
ENDBRANCH   2   5
TORSDOF 1
ENDMDL
MODEL 16
REMARK VINA RESULT:      -4.3      4.448      4.788
REMARK  1 active torsions:
REMARK  status: ('A' for Active; 'I' for Inactive)
REMARK    1  A    between atoms: C_2  and  C_5 
ROOT
HETATM    1 CL   LIG     1      18.556  38.158  24.331  1.00  0.00    -0.040 Cl
HETATM    2  C   LIG     1      17.153  37.164  23.853  1.00  0.00     0.399 C 
HETATM    3  F   LIG     1      17.384  35.859  24.249  1.00  0.00    -0.179 F 
HETATM    4  F   LIG     1      16.026  37.633  24.504  1.00  0.00    -0.179 F 
ENDROOT
BRANCH   2   5
HETATM    5  C   LIG     1      16.935  37.206  22.338  1.00  0.00     0.399 C 
HETATM    6  F   LIG     1      15.580  37.173  22.067  1.00  0.00    -0.179 F 
HETATM    7  F   LIG     1      17.533  36.107  21.745  1.00  0.00    -0.179 F 
HETATM    8 CL   LIG     1      17.620  38.694  21.628  1.00  0.00    -0.040 Cl
ENDBRANCH   2   5
TORSDOF 1
ENDMDL
MODEL 17
REMARK VINA RESULT:      -4.3      5.133      5.403
REMARK  1 active torsions:
REMARK  status: ('A' for Active; 'I' for Inactive)
REMARK    1  A    between atoms: C_2  and  C_5 
ROOT
HETATM    1 CL   LIG     1      17.623  38.138  22.141  1.00  0.00    -0.040 Cl
HETATM    2  C   LIG     1      17.106  37.282  23.620  1.00  0.00     0.399 C 
HETATM    3  F   LIG     1      15.807  37.657  23.912  1.00  0.00    -0.179 F 
HETATM    4  F   LIG     1      17.133  35.919  23.384  1.00  0.00    -0.179 F 
ENDROOT
BRANCH   2   5
HETATM    5  C   LIG     1      18.014  37.625  24.804  1.00  0.00     0.399 C 
HETATM    6  F   LIG     1      19.111  38.336  24.351  1.00  0.00    -0.179 F 
HETATM    7  F   LIG     1      18.457  36.462  25.410  1.00  0.00    -0.179 F 
HETATM    8 CL   LIG     1      17.153  38.619  26.011  1.00  0.00    -0.040 Cl
ENDBRANCH   2   5
TORSDOF 1
ENDMDL
MODEL 18
REMARK VINA RESULT:      -4.3      7.213      8.501
REMARK  1 active torsions:
REMARK  status: ('A' for Active; 'I' for Inactive)
REMARK    1  A    between atoms: C_2  and  C_5 
ROOT
HETATM    1 CL   LIG     1      16.060  32.546  15.580  1.00  0.00    -0.040 Cl
HETATM    2  C   LIG     1      14.853  32.743  16.881  1.00  0.00     0.399 C 
HETATM    3  F   LIG     1      15.510  32.710  18.098  1.00  0.00    -0.179 F 
HETATM    4  F   LIG     1      14.238  33.975  16.741  1.00  0.00    -0.179 F 
ENDROOT
BRANCH   2   5
HETATM    5  C   LIG     1      13.805  31.628  16.837  1.00  0.00     0.399 C 
HETATM    6  F   LIG     1      12.539  32.186  16.850  1.00  0.00    -0.179 F 
HETATM    7  F   LIG     1      13.941  30.809  17.945  1.00  0.00    -0.179 F 
HETATM    8 CL   LIG     1      13.974  30.641  15.360  1.00  0.00    -0.040 Cl
ENDBRANCH   2   5
TORSDOF 1
ENDMDL
MODEL 19
REMARK VINA RESULT:      -4.3      7.222      8.345
REMARK  1 active torsions:
REMARK  status: ('A' for Active; 'I' for Inactive)
REMARK    1  A    between atoms: C_2  and  C_5 
ROOT
HETATM    1 CL   LIG     1      13.981  30.638  15.332  1.00  0.00    -0.040 Cl
HETATM    2  C   LIG     1      13.813  31.625  16.810  1.00  0.00     0.399 C 
HETATM    3  F   LIG     1      12.553  32.195  16.817  1.00  0.00    -0.179 F 
HETATM    4  F   LIG     1      13.935  30.804  17.917  1.00  0.00    -0.179 F 
ENDROOT
BRANCH   2   5
HETATM    5  C   LIG     1      14.872  32.729  16.860  1.00  0.00     0.399 C 
HETATM    6  F   LIG     1      15.532  32.679  18.075  1.00  0.00    -0.179 F 
HETATM    7  F   LIG     1      14.268  33.969  16.735  1.00  0.00    -0.179 F 
HETATM    8 CL   LIG     1      16.073  32.533  15.555  1.00  0.00    -0.040 Cl
ENDBRANCH   2   5
TORSDOF 1
ENDMDL
MODEL 20
REMARK VINA RESULT:      -4.2      4.649      4.971
REMARK  1 active torsions:
REMARK  status: ('A' for Active; 'I' for Inactive)
REMARK    1  A    between atoms: C_2  and  C_5 
ROOT
HETATM    1 CL   LIG     1      15.653  37.505  22.740  1.00  0.00    -0.040 Cl
HETATM    2  C   LIG     1      17.182  38.387  23.008  1.00  0.00     0.399 C 
HETATM    3  F   LIG     1      18.007  38.177  21.919  1.00  0.00    -0.179 F 
HETATM    4  F   LIG     1      16.909  39.740  23.106  1.00  0.00    -0.179 F 
ENDROOT
BRANCH   2   5
HETATM    5  C   LIG     1      17.883  37.903  24.280  1.00  0.00     0.399 C 
HETATM    6  F   LIG     1      19.201  38.321  24.266  1.00  0.00    -0.179 F 
HETATM    7  F   LIG     1      17.856  36.520  24.337  1.00  0.00    -0.179 F 
HETATM    8 CL   LIG     1      17.096  38.561  25.742  1.00  0.00    -0.040 Cl
ENDBRANCH   2   5
TORSDOF 1
ENDMDL
