MODEL 1
REMARK VINA RESULT:      -5.3      0.000      0.000
REMARK  1 active torsions:
REMARK  status: ('A' for Active; 'I' for Inactive)
REMARK    1  A    between atoms: C_2  and  C_5 
ROOT
HETATM    1 CL   LIG     1      17.978  36.796  20.873  1.00  0.00    -0.042 Cl
HETATM    2  C   LIG     1      18.991  37.076  19.430  1.00  0.00     0.384 C 
HETATM    3  F   LIG     1      18.251  36.778  18.299  1.00  0.00    -0.181 F 
HETATM    4  F   LIG     1      20.079  36.222  19.490  1.00  0.00    -0.181 F 
ENDROOT
BRANCH   2   5
HETATM    5  C   LIG     1      19.479  38.530  19.373  1.00  0.00     0.336 C 
HETATM    6  F   LIG     1      20.861  38.562  19.414  1.00  0.00    -0.199 F 
HETATM    7 CL   LIG     1      18.837  39.475  20.745  1.00  0.00    -0.058 Cl
HETATM    8 CL   LIG     1      18.938  39.302  17.858  1.00  0.00    -0.058 Cl
ENDBRANCH   2   5
TORSDOF 1
ENDMDL
MODEL 2
REMARK VINA RESULT:      -5.1      5.197      5.881
REMARK  1 active torsions:
REMARK  status: ('A' for Active; 'I' for Inactive)
REMARK    1  A    between atoms: C_2  and  C_5 
ROOT
HETATM    1 CL   LIG     1      18.117  36.142  25.930  1.00  0.00    -0.042 Cl
HETATM    2  C   LIG     1      17.801  37.616  24.973  1.00  0.00     0.384 C 
HETATM    3  F   LIG     1      19.010  38.198  24.636  1.00  0.00    -0.181 F 
HETATM    4  F   LIG     1      17.084  38.500  25.760  1.00  0.00    -0.181 F 
ENDROOT
BRANCH   2   5
HETATM    5  C   LIG     1      17.002  37.288  23.705  1.00  0.00     0.336 C 
HETATM    6  F   LIG     1      15.683  37.673  23.869  1.00  0.00    -0.199 F 
HETATM    7 CL   LIG     1      17.053  35.539  23.349  1.00  0.00    -0.058 Cl
HETATM    8 CL   LIG     1      17.678  38.164  22.306  1.00  0.00    -0.058 Cl
ENDBRANCH   2   5
TORSDOF 1
ENDMDL
MODEL 3
REMARK VINA RESULT:      -4.8      4.215      5.138
REMARK  1 active torsions:
REMARK  status: ('A' for Active; 'I' for Inactive)
REMARK    1  A    between atoms: C_2  and  C_5 
ROOT
HETATM    1 CL   LIG     1      16.845  37.605  24.546  1.00  0.00    -0.042 Cl
HETATM    2  C   LIG     1      16.410  37.688  22.817  1.00  0.00     0.384 C 
HETATM    3  F   LIG     1      17.208  38.636  22.200  1.00  0.00    -0.181 F 
HETATM    4  F   LIG     1      15.088  38.085  22.720  1.00  0.00    -0.181 F 
ENDROOT
BRANCH   2   5
HETATM    5  C   LIG     1      16.591  36.324  22.137  1.00  0.00     0.336 C 
HETATM    6  F   LIG     1      17.580  36.408  21.174  1.00  0.00    -0.199 F 
HETATM    7 CL   LIG     1      15.074  35.788  21.363  1.00  0.00    -0.058 Cl
HETATM    8 CL   LIG     1      17.072  35.096  23.338  1.00  0.00    -0.058 Cl
ENDBRANCH   2   5
TORSDOF 1
ENDMDL
MODEL 4
REMARK VINA RESULT:      -4.8      3.898      4.716
REMARK  1 active torsions:
REMARK  status: ('A' for Active; 'I' for Inactive)
REMARK    1  A    between atoms: C_2  and  C_5 
ROOT
HETATM    1 CL   LIG     1      15.146  35.609  21.248  1.00  0.00    -0.042 Cl
HETATM    2  C   LIG     1      16.642  36.165  22.047  1.00  0.00     0.384 C 
HETATM    3  F   LIG     1      17.623  36.341  21.086  1.00  0.00    -0.181 F 
HETATM    4  F   LIG     1      17.054  35.182  22.931  1.00  0.00    -0.181 F 
ENDROOT
BRANCH   2   5
HETATM    5  C   LIG     1      16.407  37.477  22.807  1.00  0.00     0.336 C 
HETATM    6  F   LIG     1      15.073  37.833  22.725  1.00  0.00    -0.199 F 
HETATM    7 CL   LIG     1      17.400  38.797  22.128  1.00  0.00    -0.058 Cl
HETATM    8 CL   LIG     1      16.838  37.279  24.527  1.00  0.00    -0.058 Cl
ENDBRANCH   2   5
TORSDOF 1
ENDMDL
MODEL 5
REMARK VINA RESULT:      -4.7      4.086      4.870
REMARK  1 active torsions:
REMARK  status: ('A' for Active; 'I' for Inactive)
REMARK    1  A    between atoms: C_2  and  C_5 
ROOT
HETATM    1 CL   LIG     1      17.662  38.625  22.115  1.00  0.00    -0.042 Cl
HETATM    2  C   LIG     1      16.584  37.342  22.732  1.00  0.00     0.384 C 
HETATM    3  F   LIG     1      15.285  37.818  22.744  1.00  0.00    -0.181 F 
HETATM    4  F   LIG     1      16.963  37.043  24.029  1.00  0.00    -0.181 F 
ENDROOT
BRANCH   2   5
HETATM    5  C   LIG     1      16.676  36.081  21.863  1.00  0.00     0.336 C 
HETATM    6  F   LIG     1      17.131  35.019  22.624  1.00  0.00    -0.199 F 
HETATM    7 CL   LIG     1      17.791  36.328  20.490  1.00  0.00    -0.058 Cl
HETATM    8 CL   LIG     1      15.069  35.663  21.211  1.00  0.00    -0.058 Cl
ENDBRANCH   2   5
TORSDOF 1
ENDMDL
MODEL 6
REMARK VINA RESULT:      -4.6      3.537      4.071
REMARK  1 active torsions:
REMARK  status: ('A' for Active; 'I' for Inactive)
REMARK    1  A    between atoms: C_2  and  C_5 
ROOT
HETATM    1 CL   LIG     1      15.126  35.510  21.252  1.00  0.00    -0.042 Cl
HETATM    2  C   LIG     1      16.819  35.845  21.712  1.00  0.00     0.384 C 
HETATM    3  F   LIG     1      17.587  35.925  20.564  1.00  0.00    -0.181 F 
HETATM    4  F   LIG     1      17.277  34.790  22.483  1.00  0.00    -0.181 F 
ENDROOT
BRANCH   2   5
HETATM    5  C   LIG     1      16.925  37.152  22.510  1.00  0.00     0.336 C 
HETATM    6  F   LIG     1      17.532  36.909  23.729  1.00  0.00    -0.199 F 
HETATM    7 CL   LIG     1      15.311  37.859  22.798  1.00  0.00    -0.058 Cl
HETATM    8 CL   LIG     1      17.907  38.342  21.614  1.00  0.00    -0.058 Cl
ENDBRANCH   2   5
TORSDOF 1
ENDMDL
MODEL 7
REMARK VINA RESULT:      -4.6      3.656      4.448
REMARK  1 active torsions:
REMARK  status: ('A' for Active; 'I' for Inactive)
REMARK    1  A    between atoms: C_2  and  C_5 
ROOT
HETATM    1 CL   LIG     1      17.988  36.414  20.335  1.00  0.00    -0.042 Cl
HETATM    2  C   LIG     1      16.988  35.926  21.731  1.00  0.00     0.384 C 
HETATM    3  F   LIG     1      17.511  34.764  22.270  1.00  0.00    -0.181 F 
HETATM    4  F   LIG     1      15.705  35.670  21.278  1.00  0.00    -0.181 F 
ENDROOT
BRANCH   2   5
HETATM    5  C   LIG     1      16.950  37.031  22.794  1.00  0.00     0.336 C 
HETATM    6  F   LIG     1      17.914  37.983  22.516  1.00  0.00    -0.199 F 
HETATM    7 CL   LIG     1      17.250  36.363  24.423  1.00  0.00    -0.058 Cl
HETATM    8 CL   LIG     1      15.353  37.825  22.801  1.00  0.00    -0.058 Cl
ENDBRANCH   2   5
TORSDOF 1
ENDMDL
MODEL 8
REMARK VINA RESULT:      -4.5      4.245      4.715
REMARK  1 active torsions:
REMARK  status: ('A' for Active; 'I' for Inactive)
REMARK    1  A    between atoms: C_2  and  C_5 
ROOT
HETATM    1 CL   LIG     1      18.416  37.904  24.875  1.00  0.00    -0.042 Cl
HETATM    2  C   LIG     1      17.151  37.374  23.732  1.00  0.00     0.384 C 
HETATM    3  F   LIG     1      15.912  37.699  24.255  1.00  0.00    -0.181 F 
HETATM    4  F   LIG     1      17.234  35.998  23.601  1.00  0.00    -0.181 F 
ENDROOT
BRANCH   2   5
HETATM    5  C   LIG     1      17.336  38.035  22.361  1.00  0.00     0.336 C 
HETATM    6  F   LIG     1      16.251  38.847  22.082  1.00  0.00    -0.199 F 
HETATM    7 CL   LIG     1      17.485  36.808  21.072  1.00  0.00    -0.058 Cl
HETATM    8 CL   LIG     1      18.811  39.038  22.354  1.00  0.00    -0.058 Cl
ENDBRANCH   2   5
TORSDOF 1
ENDMDL
MODEL 9
REMARK VINA RESULT:      -4.5      5.175      5.780
REMARK  1 active torsions:
REMARK  status: ('A' for Active; 'I' for Inactive)
REMARK    1  A    between atoms: C_2  and  C_5 
ROOT
HETATM    1 CL   LIG     1      17.138  35.182  23.956  1.00  0.00    -0.042 Cl
HETATM    2  C   LIG     1      17.169  36.966  23.923  1.00  0.00     0.384 C 
HETATM    3  F   LIG     1      15.873  37.438  24.037  1.00  0.00    -0.181 F 
HETATM    4  F   LIG     1      17.684  37.369  22.703  1.00  0.00    -0.181 F 
ENDROOT
BRANCH   2   5
HETATM    5  C   LIG     1      18.036  37.524  25.059  1.00  0.00     0.336 C 
HETATM    6  F   LIG     1      19.168  38.122  24.535  1.00  0.00    -0.199 F 
HETATM    7 CL   LIG     1      18.535  36.227  26.180  1.00  0.00    -0.058 Cl
HETATM    8 CL   LIG     1      17.125  38.746  25.986  1.00  0.00    -0.058 Cl
ENDBRANCH   2   5
TORSDOF 1
ENDMDL
MODEL 10
REMARK VINA RESULT:      -4.4      6.341      7.297
REMARK  1 active torsions:
REMARK  status: ('A' for Active; 'I' for Inactive)
REMARK    1  A    between atoms: C_2  and  C_5 
ROOT
HETATM    1 CL   LIG     1      17.040  37.709  24.689  1.00  0.00    -0.042 Cl
HETATM    2  C   LIG     1      17.916  36.672  25.849  1.00  0.00     0.384 C 
HETATM    3  F   LIG     1      17.421  36.906  27.120  1.00  0.00    -0.181 F 
HETATM    4  F   LIG     1      19.255  37.024  25.820  1.00  0.00    -0.181 F 
ENDROOT
BRANCH   2   5
HETATM    5  C   LIG     1      17.763  35.189  25.488  1.00  0.00     0.336 C 
HETATM    6  F   LIG     1      18.972  34.539  25.656  1.00  0.00    -0.199 F 
HETATM    7 CL   LIG     1      17.232  34.994  23.794  1.00  0.00    -0.058 Cl
HETATM    8 CL   LIG     1      16.552  34.419  26.547  1.00  0.00    -0.058 Cl
ENDBRANCH   2   5
TORSDOF 1
ENDMDL
MODEL 11
REMARK VINA RESULT:      -4.4      3.524      4.044
REMARK  1 active torsions:
REMARK  status: ('A' for Active; 'I' for Inactive)
REMARK    1  A    between atoms: C_2  and  C_5 
ROOT
HETATM    1 CL   LIG     1      14.438  35.752  21.255  1.00  0.00    -0.042 Cl
HETATM    2  C   LIG     1      16.010  35.193  20.620  1.00  0.00     0.384 C 
HETATM    3  F   LIG     1      16.072  35.477  19.267  1.00  0.00    -0.181 F 
HETATM    4  F   LIG     1      16.085  33.821  20.792  1.00  0.00    -0.181 F 
ENDROOT
BRANCH   2   5
HETATM    5  C   LIG     1      17.174  35.870  21.355  1.00  0.00     0.336 C 
HETATM    6  F   LIG     1      17.819  34.948  22.161  1.00  0.00    -0.199 F 
HETATM    7 CL   LIG     1      16.593  37.219  22.370  1.00  0.00    -0.058 Cl
HETATM    8 CL   LIG     1      18.351  36.518  20.182  1.00  0.00    -0.058 Cl
ENDBRANCH   2   5
TORSDOF 1
ENDMDL
MODEL 12
REMARK VINA RESULT:      -4.3      7.230      8.449
REMARK  1 active torsions:
REMARK  status: ('A' for Active; 'I' for Inactive)
REMARK    1  A    between atoms: C_2  and  C_5 
ROOT
HETATM    1 CL   LIG     1      14.006  30.654  15.219  1.00  0.00    -0.042 Cl
HETATM    2  C   LIG     1      13.714  31.487  16.771  1.00  0.00     0.384 C 
HETATM    3  F   LIG     1      13.809  30.564  17.798  1.00  0.00    -0.181 F 
HETATM    4  F   LIG     1      12.430  32.003  16.752  1.00  0.00    -0.181 F 
ENDROOT
BRANCH   2   5
HETATM    5  C   LIG     1      14.724  32.621  16.986  1.00  0.00     0.336 C 
HETATM    6  F   LIG     1      14.116  33.841  16.749  1.00  0.00    -0.199 F 
HETATM    7 CL   LIG     1      16.123  32.450  15.890  1.00  0.00    -0.058 Cl
HETATM    8 CL   LIG     1      15.323  32.603  18.667  1.00  0.00    -0.058 Cl
ENDBRANCH   2   5
TORSDOF 1
ENDMDL
MODEL 13
REMARK VINA RESULT:      -4.3      1.957      2.590
REMARK  1 active torsions:
REMARK  status: ('A' for Active; 'I' for Inactive)
REMARK    1  A    between atoms: C_2  and  C_5 
ROOT
HETATM    1 CL   LIG     1      17.667  37.187  21.360  1.00  0.00    -0.042 Cl
HETATM    2  C   LIG     1      18.634  38.525  20.680  1.00  0.00     0.384 C 
HETATM    3  F   LIG     1      19.547  38.945  21.631  1.00  0.00    -0.181 F 
HETATM    4  F   LIG     1      17.779  39.574  20.388  1.00  0.00    -0.181 F 
ENDROOT
BRANCH   2   5
HETATM    5  C   LIG     1      19.364  38.084  19.405  1.00  0.00     0.336 C 
HETATM    6  F   LIG     1      19.144  36.737  19.180  1.00  0.00    -0.199 F 
HETATM    7 CL   LIG     1      21.122  38.367  19.544  1.00  0.00    -0.058 Cl
HETATM    8 CL   LIG     1      18.759  39.001  17.999  1.00  0.00    -0.058 Cl
ENDBRANCH   2   5
TORSDOF 1
ENDMDL
MODEL 14
REMARK VINA RESULT:      -4.2      4.449      5.282
REMARK  1 active torsions:
REMARK  status: ('A' for Active; 'I' for Inactive)
REMARK    1  A    between atoms: C_2  and  C_5 
ROOT
HETATM    1 CL   LIG     1      15.816  38.601  22.412  1.00  0.00    -0.042 Cl
HETATM    2  C   LIG     1      17.323  37.720  22.783  1.00  0.00     0.384 C 
HETATM    3  F   LIG     1      18.392  38.592  22.664  1.00  0.00    -0.181 F 
HETATM    4  F   LIG     1      17.472  36.703  21.856  1.00  0.00    -0.181 F 
ENDROOT
BRANCH   2   5
HETATM    5  C   LIG     1      17.281  37.128  24.198  1.00  0.00     0.336 C 
HETATM    6  F   LIG     1      16.165  37.594  24.868  1.00  0.00    -0.199 F 
HETATM    7 CL   LIG     1      18.741  37.576  25.124  1.00  0.00    -0.058 Cl
HETATM    8 CL   LIG     1      17.193  35.348  24.118  1.00  0.00    -0.058 Cl
ENDBRANCH   2   5
TORSDOF 1
ENDMDL
MODEL 15
REMARK VINA RESULT:      -4.1      7.030      8.404
REMARK  1 active torsions:
REMARK  status: ('A' for Active; 'I' for Inactive)
REMARK    1  A    between atoms: C_2  and  C_5 
ROOT
HETATM    1 CL   LIG     1      15.370  32.506  18.963  1.00  0.00    -0.042 Cl
HETATM    2  C   LIG     1      14.976  32.564  17.222  1.00  0.00     0.384 C 
HETATM    3  F   LIG     1      16.139  32.384  16.495  1.00  0.00    -0.181 F 
HETATM    4  F   LIG     1      14.459  33.816  16.935  1.00  0.00    -0.181 F 
ENDROOT
BRANCH   2   5
HETATM    5  C   LIG     1      13.951  31.484  16.854  1.00  0.00     0.336 C 
HETATM    6  F   LIG     1      13.907  30.521  17.845  1.00  0.00    -0.199 F 
HETATM    7 CL   LIG     1      14.373  30.702  15.305  1.00  0.00    -0.058 Cl
HETATM    8 CL   LIG     1      12.327  32.206  16.692  1.00  0.00    -0.058 Cl
ENDBRANCH   2   5
TORSDOF 1
ENDMDL
MODEL 16
REMARK VINA RESULT:      -4.0      4.023      5.041
REMARK  1 active torsions:
REMARK  status: ('A' for Active; 'I' for Inactive)
REMARK    1  A    between atoms: C_2  and  C_5 
ROOT
HETATM    1 CL   LIG     1      17.012  35.053  23.050  1.00  0.00    -0.042 Cl
HETATM    2  C   LIG     1      16.644  35.953  21.552  1.00  0.00     0.384 C 
HETATM    3  F   LIG     1      17.739  35.886  20.709  1.00  0.00    -0.181 F 
HETATM    4  F   LIG     1      16.417  37.277  21.885  1.00  0.00    -0.181 F 
ENDROOT
BRANCH   2   5
HETATM    5  C   LIG     1      15.405  35.377  20.854  1.00  0.00     0.336 C 
HETATM    6  F   LIG     1      14.347  36.260  20.972  1.00  0.00    -0.199 F 
HETATM    7 CL   LIG     1      14.934  33.812  21.573  1.00  0.00    -0.058 Cl
HETATM    8 CL   LIG     1      15.739  35.119  19.120  1.00  0.00    -0.058 Cl
ENDBRANCH   2   5
TORSDOF 1
ENDMDL
MODEL 17
REMARK VINA RESULT:      -3.9      8.176      8.964
REMARK  1 active torsions:
REMARK  status: ('A' for Active; 'I' for Inactive)
REMARK    1  A    between atoms: C_2  and  C_5 
ROOT
HETATM    1 CL   LIG     1      22.372  35.209  13.106  1.00  0.00    -0.042 Cl
HETATM    2  C   LIG     1      21.018  34.249  12.446  1.00  0.00     0.384 C 
HETATM    3  F   LIG     1      19.863  34.573  13.137  1.00  0.00    -0.181 F 
HETATM    4  F   LIG     1      21.297  32.908  12.647  1.00  0.00    -0.181 F 
ENDROOT
BRANCH   2   5
HETATM    5  C   LIG     1      20.830  34.519  10.948  1.00  0.00     0.336 C 
HETATM    6  F   LIG     1      21.692  35.522  10.541  1.00  0.00    -0.199 F 
HETATM    7 CL   LIG     1      19.153  35.019  10.592  1.00  0.00    -0.058 Cl
HETATM    8 CL   LIG     1      21.188  33.046  10.007  1.00  0.00    -0.058 Cl
ENDBRANCH   2   5
TORSDOF 1
ENDMDL
MODEL 18
REMARK VINA RESULT:      -3.9      8.023      8.817
REMARK  1 active torsions:
REMARK  status: ('A' for Active; 'I' for Inactive)
REMARK    1  A    between atoms: C_2  and  C_5 
ROOT
HETATM    1 CL   LIG     1      13.816  30.606  15.417  1.00  0.00    -0.042 Cl
HETATM    2  C   LIG     1      15.309  30.689  14.442  1.00  0.00     0.384 C 
HETATM    3  F   LIG     1      14.966  30.797  13.106  1.00  0.00    -0.181 F 
HETATM    4  F   LIG     1      16.015  29.512  14.628  1.00  0.00    -0.181 F 
ENDROOT
BRANCH   2   5
HETATM    5  C   LIG     1      16.176  31.882  14.862  1.00  0.00     0.336 C 
HETATM    6  F   LIG     1      17.335  31.431  15.469  1.00  0.00    -0.199 F 
HETATM    7 CL   LIG     1      15.301  32.940  16.004  1.00  0.00    -0.058 Cl
HETATM    8 CL   LIG     1      16.625  32.851  13.433  1.00  0.00    -0.058 Cl
ENDBRANCH   2   5
TORSDOF 1
ENDMDL
MODEL 19
REMARK VINA RESULT:      -3.9      8.595      9.022
REMARK  1 active torsions:
REMARK  status: ('A' for Active; 'I' for Inactive)
REMARK    1  A    between atoms: C_2  and  C_5 
ROOT
HETATM    1 CL   LIG     1      18.956  33.841  13.340  1.00  0.00    -0.042 Cl
HETATM    2  C   LIG     1      19.335  33.717  11.599  1.00  0.00     0.384 C 
HETATM    3  F   LIG     1      18.547  34.617  10.905  1.00  0.00    -0.181 F 
HETATM    4  F   LIG     1      19.025  32.435  11.178  1.00  0.00    -0.181 F 
ENDROOT
BRANCH   2   5
HETATM    5  C   LIG     1      20.819  34.002  11.337  1.00  0.00     0.336 C 
HETATM    6  F   LIG     1      21.449  32.850  10.901  1.00  0.00    -0.199 F 
HETATM    7 CL   LIG     1      21.633  34.580  12.818  1.00  0.00    -0.058 Cl
HETATM    8 CL   LIG     1      20.993  35.254  10.078  1.00  0.00    -0.058 Cl
ENDBRANCH   2   5
TORSDOF 1
ENDMDL
MODEL 20
REMARK VINA RESULT:      -3.8      8.729      9.307
REMARK  1 active torsions:
REMARK  status: ('A' for Active; 'I' for Inactive)
REMARK    1  A    between atoms: C_2  and  C_5 
ROOT
HETATM    1 CL   LIG     1      21.747  34.336  12.908  1.00  0.00    -0.042 Cl
HETATM    2  C   LIG     1      20.947  33.925  11.365  1.00  0.00     0.384 C 
HETATM    3  F   LIG     1      21.488  32.747  10.881  1.00  0.00    -0.181 F 
HETATM    4  F   LIG     1      21.204  34.940  10.459  1.00  0.00    -0.181 F 
ENDROOT
BRANCH   2   5
HETATM    5  C   LIG     1      19.432  33.772  11.554  1.00  0.00     0.336 C 
HETATM    6  F   LIG     1      19.025  32.535  11.089  1.00  0.00    -0.199 F 
HETATM    7 CL   LIG     1      18.545  35.043  10.668  1.00  0.00    -0.058 Cl
HETATM    8 CL   LIG     1      19.011  33.896  13.283  1.00  0.00    -0.058 Cl
ENDBRANCH   2   5
TORSDOF 1
ENDMDL
