REMARK  1 active torsions:
REMARK  status: ('A' for Active; 'I' for Inactive)
REMARK    1  A    between atoms: C_2  and  C_5 
ROOT
HETATM    1 CL   LIG     1       0.735  -1.324   1.568  1.00  0.00    -0.042 Cl
HETATM    2  C   LIG     1       0.736  -0.221   0.164  1.00  0.00     0.384 C 
HETATM    3  F   LIG     1       1.248  -0.893  -0.932  1.00  0.00    -0.181 F 
HETATM    4  F   LIG     1       1.561   0.852   0.455  1.00  0.00    -0.181 F 
ENDROOT
BRANCH   2   5
HETATM    5  C   LIG     1      -0.680   0.284  -0.141  1.00  0.00     0.336 C 
HETATM    6  F   LIG     1      -1.200   0.922   0.971  1.00  0.00    -0.199 F 
HETATM    7 CL   LIG     1      -1.759  -1.066  -0.590  1.00  0.00    -0.058 Cl
HETATM    8 CL   LIG     1      -0.642   1.445  -1.495  1.00  0.00    -0.058 Cl
ENDBRANCH   2   5
TORSDOF 1
