REMARK  1 active torsions:
REMARK  status: ('A' for Active; 'I' for Inactive)
REMARK    1  A    between atoms: C_2  and  C_5 
ROOT
HETATM    1 CL   LIG     1      -1.429   1.515   0.472  1.00  0.00    -0.040 Cl
HETATM    2  C   LIG     1      -0.764  -0.050  -0.071  1.00  0.00     0.399 C 
HETATM    3  F   LIG     1      -1.339  -1.057   0.683  1.00  0.00    -0.179 F 
HETATM    4  F   LIG     1      -1.098  -0.244  -1.400  1.00  0.00    -0.179 F 
ENDROOT
BRANCH   2   5
HETATM    5  C   LIG     1       0.757  -0.093   0.096  1.00  0.00     0.399 C 
HETATM    6  F   LIG     1       1.225  -1.342  -0.270  1.00  0.00    -0.179 F 
HETATM    7  F   LIG     1       1.093   0.137   1.419  1.00  0.00    -0.179 F 
HETATM    8 CL   LIG     1       1.554   1.133  -0.928  1.00  0.00    -0.040 Cl
ENDBRANCH   2   5
TORSDOF 1
