REMARK  3 active torsions:
REMARK  status: ('A' for Active; 'I' for Inactive)
REMARK    1  A    between atoms: O_1  and  C_2 
REMARK    2  A    between atoms: C_2  and  C_3 
REMARK    3  A    between atoms: C_3  and  O_12 
ROOT
HETATM    1  C   LIG     1      -0.788  -0.956   0.119  1.00  0.00     0.270 C 
HETATM    2  C   LIG     1      -1.805  -0.460   1.147  1.00  0.00     0.274 C 
HETATM    3  N   LIG     1      -2.417   0.829   1.035  1.00  0.00    -0.276 N 
HETATM    4  C   LIG     1      -2.277   1.605  -0.151  1.00  0.00     0.329 C 
HETATM    5  N   LIG     1      -1.592   1.062  -1.275  1.00  0.00    -0.276 N 
HETATM    6  C   LIG     1      -0.984  -0.232  -1.208  1.00  0.00     0.274 C 
HETATM    7  O   LIG     1      -0.567  -0.762  -2.273  1.00  0.00    -0.269 OA
HETATM    8  O   LIG     1      -2.781   2.757  -0.215  1.00  0.00    -0.247 OA
HETATM    9  O   LIG     1      -2.099  -1.185   2.136  1.00  0.00    -0.269 OA
HETATM   10  H   LIG     1      -3.003   1.191   1.820  1.00  0.00     0.173 HD
HETATM   11  H   LIG     1      -1.573   1.594  -2.173  1.00  0.00     0.173 HD
ENDROOT
BRANCH   1  12
HETATM   12  O   LIG     1      -1.042  -2.323  -0.125  1.00  0.00    -0.369 OA
HETATM   13  H   LIG     1      -0.834  -2.837   0.698  1.00  0.00     0.212 HD
ENDBRANCH   1  12
BRANCH   1  14
HETATM   14  C   LIG     1       0.701  -0.750   0.624  1.00  0.00     0.270 C 
HETATM   15  C   LIG     1       1.668  -1.361  -0.384  1.00  0.00     0.274 C 
HETATM   16  N   LIG     1       2.461  -0.558  -1.263  1.00  0.00    -0.276 N 
HETATM   17  O   LIG     1       1.754  -2.616  -0.470  1.00  0.00    -0.269 OA
HETATM   18  C   LIG     1       2.496   0.859  -1.137  1.00  0.00     0.329 C 
HETATM   19  H   LIG     1       3.037  -1.021  -2.001  1.00  0.00     0.173 HD
HETATM   20  N   LIG     1       1.792   1.493  -0.076  1.00  0.00    -0.276 N 
HETATM   21  O   LIG     1       3.166   1.548  -1.951  1.00  0.00    -0.247 OA
HETATM   22  C   LIG     1       0.999   0.737   0.843  1.00  0.00     0.274 C 
HETATM   23  H   LIG     1       1.879   2.527   0.050  1.00  0.00     0.173 HD
HETATM   24  O   LIG     1       0.504   1.331   1.839  1.00  0.00    -0.269 OA
BRANCH  14  25
HETATM   25  O   LIG     1       0.919  -1.445   1.834  1.00  0.00    -0.369 OA
HETATM   26  H   LIG     1       0.387  -1.024   2.557  1.00  0.00     0.212 HD
ENDBRANCH  14  25
ENDBRANCH   1  14
TORSDOF 3
