MODEL 1
REMARK VINA RESULT:      -3.9      0.000      0.000
REMARK  3 active torsions:
REMARK  status: ('A' for Active; 'I' for Inactive)
REMARK    1  A    between atoms: O_1  and  C_2 
REMARK    2  A    between atoms: C_2  and  C_3 
REMARK    3  A    between atoms: C_3  and  O_12 
ROOT
HETATM    1  C   LIG     1      27.064  29.172  34.750  1.00  0.00     0.270 C 
HETATM    2  C   LIG     1      27.894  30.207  33.991  1.00  0.00     0.274 C 
HETATM    3  N   LIG     1      29.041  29.831  33.221  1.00  0.00    -0.276 N 
HETATM    4  C   LIG     1      29.320  28.462  32.946  1.00  0.00     0.329 C 
HETATM    5  N   LIG     1      28.406  27.455  33.366  1.00  0.00    -0.276 N 
HETATM    6  C   LIG     1      27.239  27.794  34.121  1.00  0.00     0.274 C 
HETATM    7  O   LIG     1      26.355  26.912  34.300  1.00  0.00    -0.269 OA
HETATM    8  O   LIG     1      30.359  28.146  32.308  1.00  0.00    -0.247 OA
HETATM    9  O   LIG     1      27.587  31.428  34.061  1.00  0.00    -0.269 OA
HETATM   10  H   LIG     1      29.662  30.572  32.826  1.00  0.00     0.173 HD
HETATM   11  H   LIG     1      28.565  26.463  33.081  1.00  0.00     0.173 HD
ENDROOT
BRANCH   1  12
HETATM   12  O   LIG     1      25.702  29.512  34.606  1.00  0.00    -0.369 OA
HETATM   13  H   LIG     1      25.637  30.358  34.091  1.00  0.00     0.212 HD
ENDBRANCH   1  12
BRANCH   1  14
HETATM   14  C   LIG     1      27.463  29.113  36.283  1.00  0.00     0.270 C 
HETATM   15  C   LIG     1      28.973  29.272  36.422  1.00  0.00     0.274 C 
HETATM   16  N   LIG     1      29.571  30.479  36.901  1.00  0.00    -0.276 N 
HETATM   17  O   LIG     1      29.725  28.320  36.077  1.00  0.00    -0.269 OA
HETATM   18  C   LIG     1      28.777  31.543  37.414  1.00  0.00     0.329 C 
HETATM   19  H   LIG     1      30.611  30.576  36.889  1.00  0.00     0.173 HD
HETATM   20  N   LIG     1      27.368  31.384  37.525  1.00  0.00    -0.276 N 
HETATM   21  O   LIG     1      29.324  32.614  37.788  1.00  0.00    -0.247 OA
HETATM   22  C   LIG     1      26.719  30.191  37.079  1.00  0.00     0.274 C 
HETATM   23  H   LIG     1      26.801  32.143  37.966  1.00  0.00     0.173 HD
HETATM   24  O   LIG     1      25.489  30.049  37.320  1.00  0.00    -0.269 OA
BRANCH  14  25
HETATM   25  O   LIG     1      27.159  27.847  36.830  1.00  0.00    -0.369 OA
HETATM   26  H   LIG     1      26.314  27.510  36.435  1.00  0.00     0.212 HD
ENDBRANCH  14  25
ENDBRANCH   1  14
TORSDOF 3
ENDMDL
MODEL 2
REMARK VINA RESULT:      -3.9      1.012      4.430
REMARK  3 active torsions:
REMARK  status: ('A' for Active; 'I' for Inactive)
REMARK    1  A    between atoms: O_1  and  C_2 
REMARK    2  A    between atoms: C_2  and  C_3 
REMARK    3  A    between atoms: C_3  and  O_12 
ROOT
HETATM    1  C   LIG     1      27.041  29.939  35.505  1.00  0.00     0.270 C 
HETATM    2  C   LIG     1      26.807  30.039  37.013  1.00  0.00     0.274 C 
HETATM    3  N   LIG     1      27.761  30.659  37.881  1.00  0.00    -0.276 N 
HETATM    4  C   LIG     1      28.854  31.405  37.353  1.00  0.00     0.329 C 
HETATM    5  N   LIG     1      28.957  31.612  35.948  1.00  0.00    -0.276 N 
HETATM    6  C   LIG     1      28.010  31.024  35.049  1.00  0.00     0.274 C 
HETATM    7  O   LIG     1      28.010  31.391  33.843  1.00  0.00    -0.269 OA
HETATM    8  O   LIG     1      29.711  31.903  38.129  1.00  0.00    -0.247 OA
HETATM    9  O   LIG     1      25.763  29.543  37.518  1.00  0.00    -0.269 OA
HETATM   10  H   LIG     1      27.636  30.593  38.915  1.00  0.00     0.173 HD
HETATM   11  H   LIG     1      29.704  32.237  35.572  1.00  0.00     0.173 HD
ENDROOT
BRANCH   1  12
HETATM   12  O   LIG     1      25.815  30.192  34.853  1.00  0.00    -0.369 OA
HETATM   13  H   LIG     1      26.003  30.608  33.972  1.00  0.00     0.212 HD
ENDBRANCH   1  12
BRANCH   1  14
HETATM   14  C   LIG     1      27.604  28.515  35.095  1.00  0.00     0.270 C 
HETATM   15  C   LIG     1      27.255  28.232  33.638  1.00  0.00     0.274 C 
HETATM   16  N   LIG     1      28.233  28.286  32.596  1.00  0.00    -0.276 N 
HETATM   17  O   LIG     1      26.060  27.970  33.332  1.00  0.00    -0.269 OA
HETATM   18  C   LIG     1      29.615  28.461  32.889  1.00  0.00     0.329 C 
HETATM   19  H   LIG     1      27.931  28.179  31.602  1.00  0.00     0.173 HD
HETATM   20  N   LIG     1      30.050  28.511  34.242  1.00  0.00    -0.276 N 
HETATM   21  O   LIG     1      30.452  28.550  31.952  1.00  0.00    -0.247 OA
HETATM   22  C   LIG     1      29.117  28.443  35.324  1.00  0.00     0.274 C 
HETATM   23  H   LIG     1      31.073  28.570  34.449  1.00  0.00     0.173 HD
HETATM   24  O   LIG     1      29.566  28.360  36.499  1.00  0.00    -0.269 OA
BRANCH  14  25
HETATM   25  O   LIG     1      26.977  27.495  35.844  1.00  0.00    -0.369 OA
HETATM   26  H   LIG     1      26.948  27.757  36.800  1.00  0.00     0.212 HD
ENDBRANCH  14  25
ENDBRANCH   1  14
TORSDOF 3
ENDMDL
MODEL 3
REMARK VINA RESULT:      -3.9      0.208      4.488
REMARK  3 active torsions:
REMARK  status: ('A' for Active; 'I' for Inactive)
REMARK    1  A    between atoms: O_1  and  C_2 
REMARK    2  A    between atoms: C_2  and  C_3 
REMARK    3  A    between atoms: C_3  and  O_12 
ROOT
HETATM    1  C   LIG     1      27.391  29.022  36.356  1.00  0.00     0.270 C 
HETATM    2  C   LIG     1      28.905  29.143  36.527  1.00  0.00     0.274 C 
HETATM    3  N   LIG     1      29.522  30.382  36.892  1.00  0.00    -0.276 N 
HETATM    4  C   LIG     1      28.739  31.489  37.329  1.00  0.00     0.329 C 
HETATM    5  N   LIG     1      27.332  31.341  37.488  1.00  0.00    -0.276 N 
HETATM    6  C   LIG     1      26.682  30.111  37.152  1.00  0.00     0.274 C 
HETATM    7  O   LIG     1      25.479  29.948  37.494  1.00  0.00    -0.269 OA
HETATM    8  O   LIG     1      29.293  32.587  37.599  1.00  0.00    -0.247 OA
HETATM    9  O   LIG     1      29.641  28.140  36.319  1.00  0.00    -0.269 OA
HETATM   10  H   LIG     1      30.563  30.466  36.871  1.00  0.00     0.173 HD
HETATM   11  H   LIG     1      26.775  32.123  37.897  1.00  0.00     0.173 HD
ENDROOT
BRANCH   1  12
HETATM   12  O   LIG     1      26.985  27.788  36.907  1.00  0.00    -0.369 OA
HETATM   13  H   LIG     1      27.499  27.626  37.740  1.00  0.00     0.212 HD
ENDBRANCH   1  12
BRANCH   1  14
HETATM   14  C   LIG     1      26.967  29.115  34.830  1.00  0.00     0.270 C 
HETATM   15  C   LIG     1      27.781  30.206  34.143  1.00  0.00     0.274 C 
HETATM   16  N   LIG     1      28.846  29.905  33.236  1.00  0.00    -0.276 N 
HETATM   17  O   LIG     1      27.531  31.414  34.400  1.00  0.00    -0.269 OA
HETATM   18  C   LIG     1      29.102  28.569  32.816  1.00  0.00     0.329 C 
HETATM   19  H   LIG     1      29.437  30.681  32.864  1.00  0.00     0.173 HD
HETATM   20  N   LIG     1      28.244  27.517  33.241  1.00  0.00    -0.276 N 
HETATM   21  O   LIG     1      30.073  28.323  32.053  1.00  0.00    -0.247 OA
HETATM   22  C   LIG     1      27.153  27.764  34.132  1.00  0.00     0.274 C 
HETATM   23  H   LIG     1      28.398  26.551  32.873  1.00  0.00     0.173 HD
HETATM   24  O   LIG     1      26.348  26.824  34.372  1.00  0.00    -0.269 OA
BRANCH  14  25
HETATM   25  O   LIG     1      25.617  29.512  34.711  1.00  0.00    -0.369 OA
HETATM   26  H   LIG     1      25.058  28.722  34.495  1.00  0.00     0.212 HD
ENDBRANCH  14  25
ENDBRANCH   1  14
TORSDOF 3
ENDMDL
MODEL 4
REMARK VINA RESULT:      -3.8      2.492      5.682
REMARK  3 active torsions:
REMARK  status: ('A' for Active; 'I' for Inactive)
REMARK    1  A    between atoms: O_1  and  C_2 
REMARK    2  A    between atoms: C_2  and  C_3 
REMARK    3  A    between atoms: C_3  and  O_12 
ROOT
HETATM    1  C   LIG     1      28.080  27.146  34.365  1.00  0.00     0.270 C 
HETATM    2  C   LIG     1      28.168  28.442  33.558  1.00  0.00     0.274 C 
HETATM    3  N   LIG     1      27.373  29.586  33.887  1.00  0.00    -0.276 N 
HETATM    4  C   LIG     1      26.640  29.641  35.107  1.00  0.00     0.329 C 
HETATM    5  N   LIG     1      26.763  28.586  36.055  1.00  0.00    -0.276 N 
HETATM    6  C   LIG     1      27.564  27.434  35.770  1.00  0.00     0.274 C 
HETATM    7  O   LIG     1      27.812  26.622  36.702  1.00  0.00    -0.269 OA
HETATM    8  O   LIG     1      25.908  30.634  35.360  1.00  0.00    -0.247 OA
HETATM    9  O   LIG     1      28.936  28.507  32.560  1.00  0.00    -0.269 OA
HETATM   10  H   LIG     1      27.357  30.406  33.241  1.00  0.00     0.173 HD
HETATM   11  H   LIG     1      26.300  28.673  36.987  1.00  0.00     0.173 HD
ENDROOT
BRANCH   1  12
HETATM   12  O   LIG     1      29.386  26.631  34.511  1.00  0.00    -0.369 OA
HETATM   13  H   LIG     1      30.037  27.344  34.281  1.00  0.00     0.212 HD
ENDBRANCH   1  12
BRANCH   1  14
HETATM   14  C   LIG     1      27.139  26.082  33.659  1.00  0.00     0.270 C 
HETATM   15  C   LIG     1      26.623  26.654  32.344  1.00  0.00     0.274 C 
HETATM   16  N   LIG     1      27.115  26.212  31.075  1.00  0.00    -0.276 N 
HETATM   17  O   LIG     1      25.754  27.567  32.370  1.00  0.00    -0.269 OA
HETATM   18  C   LIG     1      28.007  25.108  30.974  1.00  0.00     0.329 C 
HETATM   19  H   LIG     1      26.802  26.699  30.206  1.00  0.00     0.173 HD
HETATM   20  N   LIG     1      28.365  24.378  32.141  1.00  0.00    -0.276 N 
HETATM   21  O   LIG     1      28.462  24.766  29.851  1.00  0.00    -0.247 OA
HETATM   22  C   LIG     1      27.887  24.764  33.433  1.00  0.00     0.274 C 
HETATM   23  H   LIG     1      28.965  23.527  32.049  1.00  0.00     0.173 HD
HETATM   24  O   LIG     1      28.127  24.007  34.413  1.00  0.00    -0.269 OA
BRANCH  14  25
HETATM   25  O   LIG     1      25.993  25.831  34.444  1.00  0.00    -0.369 OA
HETATM   26  H   LIG     1      25.531  26.686  34.638  1.00  0.00     0.212 HD
ENDBRANCH  14  25
ENDBRANCH   1  14
TORSDOF 3
ENDMDL
MODEL 5
REMARK VINA RESULT:      -3.8     16.214     18.984
REMARK  3 active torsions:
REMARK  status: ('A' for Active; 'I' for Inactive)
REMARK    1  A    between atoms: O_1  and  C_2 
REMARK    2  A    between atoms: C_2  and  C_3 
REMARK    3  A    between atoms: C_3  and  O_12 
ROOT
HETATM    1  C   LIG     1      23.802  20.983  20.197  1.00  0.00     0.270 C 
HETATM    2  C   LIG     1      25.208  20.537  20.597  1.00  0.00     0.274 C 
HETATM    3  N   LIG     1      26.200  21.477  21.023  1.00  0.00    -0.276 N 
HETATM    4  C   LIG     1      25.854  22.829  21.307  1.00  0.00     0.329 C 
HETATM    5  N   LIG     1      24.491  23.236  21.250  1.00  0.00    -0.276 N 
HETATM    6  C   LIG     1      23.467  22.320  20.848  1.00  0.00     0.274 C 
HETATM    7  O   LIG     1      22.261  22.651  21.004  1.00  0.00    -0.269 OA
HETATM    8  O   LIG     1      26.746  23.654  21.633  1.00  0.00    -0.247 OA
HETATM    9  O   LIG     1      25.521  19.317  20.529  1.00  0.00    -0.269 OA
HETATM   10  H   LIG     1      27.186  21.159  21.161  1.00  0.00     0.173 HD
HETATM   11  H   LIG     1      24.229  24.201  21.550  1.00  0.00     0.173 HD
ENDROOT
BRANCH   1  12
HETATM   12  O   LIG     1      22.881  20.043  20.708  1.00  0.00    -0.369 OA
HETATM   13  H   LIG     1      22.053  20.520  20.973  1.00  0.00     0.212 HD
ENDBRANCH   1  12
BRANCH   1  14
HETATM   14  C   LIG     1      23.654  21.105  18.623  1.00  0.00     0.270 C 
HETATM   15  C   LIG     1      24.955  21.634  18.030  1.00  0.00     0.274 C 
HETATM   16  N   LIG     1      25.860  20.795  17.307  1.00  0.00    -0.276 N 
HETATM   17  O   LIG     1      25.262  22.844  18.205  1.00  0.00    -0.269 OA
HETATM   18  C   LIG     1      25.518  19.454  16.976  1.00  0.00     0.329 C 
HETATM   19  H   LIG     1      26.782  21.178  17.002  1.00  0.00     0.173 HD
HETATM   20  N   LIG     1      24.227  18.952  17.301  1.00  0.00    -0.276 N 
HETATM   21  O   LIG     1      26.349  18.720  16.378  1.00  0.00    -0.247 OA
HETATM   22  C   LIG     1      23.277  19.753  18.007  1.00  0.00     0.274 C 
HETATM   23  H   LIG     1      23.961  17.989  16.994  1.00  0.00     0.173 HD
HETATM   24  O   LIG     1      22.106  19.307  18.154  1.00  0.00    -0.269 OA
BRANCH  14  25
HETATM   25  O   LIG     1      22.665  22.055  18.286  1.00  0.00    -0.369 OA
HETATM   26  H   LIG     1      22.983  22.609  17.528  1.00  0.00     0.212 HD
ENDBRANCH  14  25
ENDBRANCH   1  14
TORSDOF 3
ENDMDL
MODEL 6
REMARK VINA RESULT:      -3.8      1.534      4.860
REMARK  3 active torsions:
REMARK  status: ('A' for Active; 'I' for Inactive)
REMARK    1  A    between atoms: O_1  and  C_2 
REMARK    2  A    between atoms: C_2  and  C_3 
REMARK    3  A    between atoms: C_3  and  O_12 
ROOT
HETATM    1  C   LIG     1      28.632  30.013  35.709  1.00  0.00     0.270 C 
HETATM    2  C   LIG     1      27.325  30.628  35.207  1.00  0.00     0.274 C 
HETATM    3  N   LIG     1      26.147  30.653  36.020  1.00  0.00    -0.276 N 
HETATM    4  C   LIG     1      26.204  30.312  37.401  1.00  0.00     0.329 C 
HETATM    5  N   LIG     1      27.460  30.025  38.008  1.00  0.00    -0.276 N 
HETATM    6  C   LIG     1      28.662  30.010  37.233  1.00  0.00     0.274 C 
HETATM    7  O   LIG     1      29.770  29.954  37.832  1.00  0.00    -0.269 OA
HETATM    8  O   LIG     1      25.150  30.292  38.090  1.00  0.00    -0.247 OA
HETATM    9  O   LIG     1      27.266  31.105  34.041  1.00  0.00    -0.269 OA
HETATM   10  H   LIG     1      25.240  30.958  35.602  1.00  0.00     0.173 HD
HETATM   11  H   LIG     1      27.510  29.868  39.039  1.00  0.00     0.173 HD
ENDROOT
BRANCH   1  12
HETATM   12  O   LIG     1      29.696  30.836  35.284  1.00  0.00    -0.369 OA
HETATM   13  H   LIG     1      29.338  31.739  35.078  1.00  0.00     0.212 HD
ENDBRANCH   1  12
BRANCH   1  14
HETATM   14  C   LIG     1      28.825  28.534  35.169  1.00  0.00     0.270 C 
HETATM   15  C   LIG     1      27.523  27.758  35.335  1.00  0.00     0.274 C 
HETATM   16  N   LIG     1      26.677  27.442  34.226  1.00  0.00    -0.276 N 
HETATM   17  O   LIG     1      27.161  27.407  36.491  1.00  0.00    -0.269 OA
HETATM   18  C   LIG     1      27.085  27.708  32.889  1.00  0.00     0.329 C 
HETATM   19  H   LIG     1      25.750  26.994  34.400  1.00  0.00     0.173 HD
HETATM   20  N   LIG     1      28.384  28.229  32.635  1.00  0.00    -0.276 N 
HETATM   21  O   LIG     1      26.304  27.462  31.931  1.00  0.00    -0.247 OA
HETATM   22  C   LIG     1      29.278  28.545  33.705  1.00  0.00     0.274 C 
HETATM   23  H   LIG     1      28.700  28.356  31.646  1.00  0.00     0.173 HD
HETATM   24  O   LIG     1      30.460  28.879  33.421  1.00  0.00    -0.269 OA
BRANCH  14  25
HETATM   25  O   LIG     1      29.785  27.842  35.941  1.00  0.00    -0.369 OA
HETATM   26  H   LIG     1      30.220  28.473  36.569  1.00  0.00     0.212 HD
ENDBRANCH  14  25
ENDBRANCH   1  14
TORSDOF 3
ENDMDL
MODEL 7
REMARK VINA RESULT:      -3.8     16.090     18.327
REMARK  3 active torsions:
REMARK  status: ('A' for Active; 'I' for Inactive)
REMARK    1  A    between atoms: O_1  and  C_2 
REMARK    2  A    between atoms: C_2  and  C_3 
REMARK    3  A    between atoms: C_3  and  O_12 
ROOT
HETATM    1  C   LIG     1      23.584  21.215  18.723  1.00  0.00     0.270 C 
HETATM    2  C   LIG     1      24.852  21.831  18.132  1.00  0.00     0.274 C 
HETATM    3  N   LIG     1      25.844  21.027  17.484  1.00  0.00    -0.276 N 
HETATM    4  C   LIG     1      25.587  19.663  17.164  1.00  0.00     0.329 C 
HETATM    5  N   LIG     1      24.299  19.109  17.413  1.00  0.00    -0.276 N 
HETATM    6  C   LIG     1      23.275  19.887  18.041  1.00  0.00     0.274 C 
HETATM    7  O   LIG     1      22.098  19.437  18.061  1.00  0.00    -0.269 OA
HETATM    8  O   LIG     1      26.487  18.958  16.638  1.00  0.00    -0.247 OA
HETATM    9  O   LIG     1      25.051  23.071  18.235  1.00  0.00    -0.269 OA
HETATM   10  H   LIG     1      26.756  21.456  17.210  1.00  0.00     0.173 HD
HETATM   11  H   LIG     1      24.085  18.139  17.092  1.00  0.00     0.173 HD
ENDROOT
BRANCH   1  12
HETATM   12  O   LIG     1      22.503  22.077  18.438  1.00  0.00    -0.369 OA
HETATM   13  H   LIG     1      22.483  22.798  19.119  1.00  0.00     0.212 HD
ENDBRANCH   1  12
BRANCH   1  14
HETATM   14  C   LIG     1      23.717  20.993  20.288  1.00  0.00     0.270 C 
HETATM   15  C   LIG     1      25.127  20.511  20.613  1.00  0.00     0.274 C 
HETATM   16  N   LIG     1      26.100  21.361  21.228  1.00  0.00    -0.276 N 
HETATM   17  O   LIG     1      25.460  19.334  20.306  1.00  0.00    -0.269 OA
HETATM   18  C   LIG     1      25.753  22.656  21.702  1.00  0.00     0.329 C 
HETATM   19  H   LIG     1      27.080  21.018  21.344  1.00  0.00     0.173 HD
HETATM   20  N   LIG     1      24.402  23.096  21.636  1.00  0.00    -0.276 N 
HETATM   21  O   LIG     1      26.637  23.404  22.198  1.00  0.00    -0.247 OA
HETATM   22  C   LIG     1      23.385  22.280  21.049  1.00  0.00     0.274 C 
HETATM   23  H   LIG     1      24.144  24.021  22.049  1.00  0.00     0.173 HD
HETATM   24  O   LIG     1      22.186  22.661  21.134  1.00  0.00    -0.269 OA
BRANCH  14  25
HETATM   25  O   LIG     1      22.851  19.965  20.722  1.00  0.00    -0.369 OA
HETATM   26  H   LIG     1      23.362  19.121  20.816  1.00  0.00     0.212 HD
ENDBRANCH  14  25
ENDBRANCH   1  14
TORSDOF 3
ENDMDL
MODEL 8
REMARK VINA RESULT:      -3.8     15.940     17.620
REMARK  3 active torsions:
REMARK  status: ('A' for Active; 'I' for Inactive)
REMARK    1  A    between atoms: O_1  and  C_2 
REMARK    2  A    between atoms: C_2  and  C_3 
REMARK    3  A    between atoms: C_3  and  O_12 
ROOT
HETATM    1  C   LIG     1      23.445  21.132  20.230  1.00  0.00     0.270 C 
HETATM    2  C   LIG     1      23.102  19.644  20.312  1.00  0.00     0.274 C 
HETATM    3  N   LIG     1      22.904  18.988  21.568  1.00  0.00    -0.276 N 
HETATM    4  C   LIG     1      22.794  19.736  22.775  1.00  0.00     0.329 C 
HETATM    5  N   LIG     1      22.796  21.159  22.728  1.00  0.00    -0.276 N 
HETATM    6  C   LIG     1      22.972  21.851  21.488  1.00  0.00     0.274 C 
HETATM    7  O   LIG     1      22.766  23.094  21.453  1.00  0.00    -0.269 OA
HETATM    8  O   LIG     1      22.668  19.141  23.877  1.00  0.00    -0.247 OA
HETATM    9  O   LIG     1      23.016  18.963  19.254  1.00  0.00    -0.269 OA
HETATM   10  H   LIG     1      22.804  17.949  21.596  1.00  0.00     0.173 HD
HETATM   11  H   LIG     1      22.620  21.703  23.601  1.00  0.00     0.173 HD
ENDROOT
BRANCH   1  12
HETATM   12  O   LIG     1      22.726  21.689  19.151  1.00  0.00    -0.369 OA
HETATM   13  H   LIG     1      22.443  20.956  18.545  1.00  0.00     0.212 HD
ENDBRANCH   1  12
BRANCH   1  14
HETATM   14  C   LIG     1      25.002  21.363  20.038  1.00  0.00     0.270 C 
HETATM   15  C   LIG     1      25.253  22.038  18.694  1.00  0.00     0.274 C 
HETATM   16  N   LIG     1      25.615  23.418  18.589  1.00  0.00    -0.276 N 
HETATM   17  O   LIG     1      25.109  21.369  17.634  1.00  0.00    -0.269 OA
HETATM   18  C   LIG     1      25.904  24.194  19.747  1.00  0.00     0.329 C 
HETATM   19  H   LIG     1      25.682  23.860  17.646  1.00  0.00     0.173 HD
HETATM   20  N   LIG     1      25.909  23.578  21.029  1.00  0.00    -0.276 N 
HETATM   21  O   LIG     1      26.176  25.418  19.633  1.00  0.00    -0.247 OA
HETATM   22  C   LIG     1      25.573  22.197  21.189  1.00  0.00     0.274 C 
HETATM   23  H   LIG     1      26.190  24.139  21.865  1.00  0.00     0.173 HD
HETATM   24  O   LIG     1      25.720  21.671  22.326  1.00  0.00    -0.269 OA
BRANCH  14  25
HETATM   25  O   LIG     1      25.687  20.129  19.981  1.00  0.00    -0.369 OA
HETATM   26  H   LIG     1      25.371  19.542  20.714  1.00  0.00     0.212 HD
ENDBRANCH  14  25
ENDBRANCH   1  14
TORSDOF 3
ENDMDL
MODEL 9
REMARK VINA RESULT:      -3.8     16.009     17.543
REMARK  3 active torsions:
REMARK  status: ('A' for Active; 'I' for Inactive)
REMARK    1  A    between atoms: O_1  and  C_2 
REMARK    2  A    between atoms: C_2  and  C_3 
REMARK    3  A    between atoms: C_3  and  O_12 
ROOT
HETATM    1  C   LIG     1      25.076  21.363  19.992  1.00  0.00     0.270 C 
HETATM    2  C   LIG     1      25.336  22.031  18.642  1.00  0.00     0.274 C 
HETATM    3  N   LIG     1      25.624  23.429  18.540  1.00  0.00    -0.276 N 
HETATM    4  C   LIG     1      25.902  24.206  19.701  1.00  0.00     0.329 C 
HETATM    5  N   LIG     1      25.980  23.573  20.973  1.00  0.00    -0.276 N 
HETATM    6  C   LIG     1      25.719  22.172  21.113  1.00  0.00     0.274 C 
HETATM    7  O   LIG     1      25.993  21.610  22.207  1.00  0.00    -0.269 OA
HETATM    8  O   LIG     1      26.105  25.444  19.598  1.00  0.00    -0.247 OA
HETATM    9  O   LIG     1      25.272  21.348  17.583  1.00  0.00    -0.269 OA
HETATM   10  H   LIG     1      25.664  23.880  17.598  1.00  0.00     0.173 HD
HETATM   11  H   LIG     1      26.277  24.126  21.807  1.00  0.00     0.173 HD
ENDROOT
BRANCH   1  12
HETATM   12  O   LIG     1      25.712  20.103  19.987  1.00  0.00    -0.369 OA
HETATM   13  H   LIG     1      25.113  19.446  19.547  1.00  0.00     0.212 HD
ENDBRANCH   1  12
BRANCH   1  14
HETATM   14  C   LIG     1      23.524  21.200  20.274  1.00  0.00     0.270 C 
HETATM   15  C   LIG     1      23.178  19.719  20.370  1.00  0.00     0.274 C 
HETATM   16  N   LIG     1      22.891  19.082  21.618  1.00  0.00    -0.276 N 
HETATM   17  O   LIG     1      23.173  19.020  19.320  1.00  0.00    -0.269 OA
HETATM   18  C   LIG     1      22.767  19.836  22.819  1.00  0.00     0.329 C 
HETATM   19  H   LIG     1      22.753  18.047  21.647  1.00  0.00     0.173 HD
HETATM   20  N   LIG     1      22.856  21.255  22.776  1.00  0.00    -0.276 N 
HETATM   21  O   LIG     1      22.558  19.249  23.913  1.00  0.00    -0.247 OA
HETATM   22  C   LIG     1      23.124  21.944  21.552  1.00  0.00     0.274 C 
HETATM   23  H   LIG     1      22.696  21.805  23.651  1.00  0.00     0.173 HD
HETATM   24  O   LIG     1      23.063  23.204  21.546  1.00  0.00    -0.269 OA
BRANCH  14  25
HETATM   25  O   LIG     1      22.765  21.702  19.194  1.00  0.00    -0.369 OA
HETATM   26  H   LIG     1      21.800  21.647  19.415  1.00  0.00     0.212 HD
ENDBRANCH  14  25
ENDBRANCH   1  14
TORSDOF 3
ENDMDL
MODEL 10
REMARK VINA RESULT:      -3.7     14.868     17.759
REMARK  3 active torsions:
REMARK  status: ('A' for Active; 'I' for Inactive)
REMARK    1  A    between atoms: O_1  and  C_2 
REMARK    2  A    between atoms: C_2  and  C_3 
REMARK    3  A    between atoms: C_3  and  O_12 
ROOT
HETATM    1  C   LIG     1      27.487  25.199  19.555  1.00  0.00     0.270 C 
HETATM    2  C   LIG     1      26.361  24.347  18.970  1.00  0.00     0.274 C 
HETATM    3  N   LIG     1      25.914  23.150  19.615  1.00  0.00    -0.276 N 
HETATM    4  C   LIG     1      26.340  22.827  20.935  1.00  0.00     0.329 C 
HETATM    5  N   LIG     1      27.153  23.744  21.660  1.00  0.00    -0.276 N 
HETATM    6  C   LIG     1      27.604  24.960  21.056  1.00  0.00     0.274 C 
HETATM    7  O   LIG     1      28.146  25.835  21.784  1.00  0.00    -0.269 OA
HETATM    8  O   LIG     1      25.976  21.747  21.470  1.00  0.00    -0.247 OA
HETATM    9  O   LIG     1      25.824  24.682  17.880  1.00  0.00    -0.269 OA
HETATM   10  H   LIG     1      25.239  22.522  19.125  1.00  0.00     0.173 HD
HETATM   11  H   LIG     1      27.385  23.548  22.659  1.00  0.00     0.173 HD
ENDROOT
BRANCH   1  12
HETATM   12  O   LIG     1      27.141  26.558  19.387  1.00  0.00    -0.369 OA
HETATM   13  H   LIG     1      27.356  27.046  20.224  1.00  0.00     0.212 HD
ENDBRANCH   1  12
BRANCH   1  14
HETATM   14  C   LIG     1      28.877  24.890  18.856  1.00  0.00     0.270 C 
HETATM   15  C   LIG     1      28.775  23.583  18.079  1.00  0.00     0.274 C 
HETATM   16  N   LIG     1      28.698  23.548  16.651  1.00  0.00    -0.276 N 
HETATM   17  O   LIG     1      28.726  22.494  18.713  1.00  0.00    -0.269 OA
HETATM   18  C   LIG     1      28.864  24.730  15.875  1.00  0.00     0.329 C 
HETATM   19  H   LIG     1      28.533  22.637  16.168  1.00  0.00     0.173 HD
HETATM   20  N   LIG     1      29.184  25.958  16.516  1.00  0.00    -0.276 N 
HETATM   21  O   LIG     1      28.747  24.683  14.622  1.00  0.00    -0.247 OA
HETATM   22  C   LIG     1      29.292  26.046  17.939  1.00  0.00     0.274 C 
HETATM   23  H   LIG     1      29.372  26.806  15.933  1.00  0.00     0.173 HD
HETATM   24  O   LIG     1      29.706  27.124  18.445  1.00  0.00    -0.269 OA
BRANCH  14  25
HETATM   25  O   LIG     1      29.887  24.684  19.821  1.00  0.00    -0.369 OA
HETATM   26  H   LIG     1      30.768  24.920  19.433  1.00  0.00     0.212 HD
ENDBRANCH  14  25
ENDBRANCH   1  14
TORSDOF 3
ENDMDL
MODEL 11
REMARK VINA RESULT:      -3.7     14.260     17.071
REMARK  3 active torsions:
REMARK  status: ('A' for Active; 'I' for Inactive)
REMARK    1  A    between atoms: O_1  and  C_2 
REMARK    2  A    between atoms: C_2  and  C_3 
REMARK    3  A    between atoms: C_3  and  O_12 
ROOT
HETATM    1  C   LIG     1      26.083  22.123  21.256  1.00  0.00     0.270 C 
HETATM    2  C   LIG     1      26.399  22.938  22.510  1.00  0.00     0.274 C 
HETATM    3  N   LIG     1      25.654  22.769  23.721  1.00  0.00    -0.276 N 
HETATM    4  C   LIG     1      24.746  21.684  23.876  1.00  0.00     0.329 C 
HETATM    5  N   LIG     1      24.634  20.702  22.851  1.00  0.00    -0.276 N 
HETATM    6  C   LIG     1      25.377  20.826  21.634  1.00  0.00     0.274 C 
HETATM    7  O   LIG     1      25.411  19.846  20.842  1.00  0.00    -0.269 OA
HETATM    8  O   LIG     1      24.063  21.577  24.929  1.00  0.00    -0.247 OA
HETATM    9  O   LIG     1      27.317  23.802  22.480  1.00  0.00    -0.269 OA
HETATM   10  H   LIG     1      25.805  23.431  24.515  1.00  0.00     0.173 HD
HETATM   11  H   LIG     1      24.039  19.859  23.008  1.00  0.00     0.173 HD
ENDROOT
BRANCH   1  12
HETATM   12  O   LIG     1      27.305  21.757  20.652  1.00  0.00    -0.369 OA
HETATM   13  H   LIG     1      28.050  22.042  21.242  1.00  0.00     0.212 HD
ENDBRANCH   1  12
BRANCH   1  14
HETATM   14  C   LIG     1      25.184  22.942  20.238  1.00  0.00     0.270 C 
HETATM   15  C   LIG     1      25.508  22.508  18.812  1.00  0.00     0.274 C 
HETATM   16  N   LIG     1      24.623  21.685  18.046  1.00  0.00    -0.276 N 
HETATM   17  O   LIG     1      26.604  22.858  18.297  1.00  0.00    -0.269 OA
HETATM   18  C   LIG     1      23.325  21.354  18.525  1.00  0.00     0.329 C 
HETATM   19  H   LIG     1      24.929  21.335  17.111  1.00  0.00     0.173 HD
HETATM   20  N   LIG     1      22.861  21.904  19.752  1.00  0.00    -0.276 N 
HETATM   21  O   LIG     1      22.581  20.591  17.853  1.00  0.00    -0.247 OA
HETATM   22  C   LIG     1      23.697  22.747  20.549  1.00  0.00     0.274 C 
HETATM   23  H   LIG     1      21.881  21.711  20.062  1.00  0.00     0.173 HD
HETATM   24  O   LIG     1      23.193  23.312  21.558  1.00  0.00    -0.269 OA
BRANCH  14  25
HETATM   25  O   LIG     1      25.490  24.319  20.297  1.00  0.00    -0.369 OA
HETATM   26  H   LIG     1      25.311  24.736  19.416  1.00  0.00     0.212 HD
ENDBRANCH  14  25
ENDBRANCH   1  14
TORSDOF 3
ENDMDL
MODEL 12
REMARK VINA RESULT:      -3.6     14.714     17.446
REMARK  3 active torsions:
REMARK  status: ('A' for Active; 'I' for Inactive)
REMARK    1  A    between atoms: O_1  and  C_2 
REMARK    2  A    between atoms: C_2  and  C_3 
REMARK    3  A    between atoms: C_3  and  O_12 
ROOT
HETATM    1  C   LIG     1      29.084  25.036  18.984  1.00  0.00     0.270 C 
HETATM    2  C   LIG     1      29.108  23.711  18.221  1.00  0.00     0.274 C 
HETATM    3  N   LIG     1      28.912  23.658  16.805  1.00  0.00    -0.276 N 
HETATM    4  C   LIG     1      28.913  24.847  16.021  1.00  0.00     0.329 C 
HETATM    5  N   LIG     1      29.196  26.100  16.635  1.00  0.00    -0.276 N 
HETATM    6  C   LIG     1      29.418  26.190  18.047  1.00  0.00     0.274 C 
HETATM    7  O   LIG     1      29.862  27.270  18.523  1.00  0.00    -0.269 OA
HETATM    8  O   LIG     1      28.691  24.787  14.783  1.00  0.00    -0.247 OA
HETATM    9  O   LIG     1      29.278  22.631  18.849  1.00  0.00    -0.269 OA
HETATM   10  H   LIG     1      28.802  22.732  16.334  1.00  0.00     0.173 HD
HETATM   11  H   LIG     1      29.290  26.955  16.043  1.00  0.00     0.173 HD
ENDROOT
BRANCH   1  12
HETATM   12  O   LIG     1      30.104  24.999  19.959  1.00  0.00    -0.369 OA
HETATM   13  H   LIG     1      29.873  24.312  20.636  1.00  0.00     0.212 HD
ENDBRANCH   1  12
BRANCH   1  14
HETATM   14  C   LIG     1      27.675  25.292  19.665  1.00  0.00     0.270 C 
HETATM   15  C   LIG     1      26.633  24.373  19.038  1.00  0.00     0.274 C 
HETATM   16  N   LIG     1      26.116  23.228  19.722  1.00  0.00    -0.276 N 
HETATM   17  O   LIG     1      26.233  24.607  17.866  1.00  0.00    -0.269 OA
HETATM   18  C   LIG     1      26.439  22.975  21.085  1.00  0.00     0.329 C 
HETATM   19  H   LIG     1      25.477  22.574  19.218  1.00  0.00     0.173 HD
HETATM   20  N   LIG     1      27.230  23.909  21.810  1.00  0.00    -0.276 N 
HETATM   21  O   LIG     1      26.008  21.937  21.653  1.00  0.00    -0.247 OA
HETATM   22  C   LIG     1      27.758  25.079  21.181  1.00  0.00     0.274 C 
HETATM   23  H   LIG     1      27.405  23.749  22.828  1.00  0.00     0.173 HD
HETATM   24  O   LIG     1      28.340  25.937  21.899  1.00  0.00    -0.269 OA
BRANCH  14  25
HETATM   25  O   LIG     1      27.228  26.607  19.410  1.00  0.00    -0.369 OA
HETATM   26  H   LIG     1      26.352  26.750  19.852  1.00  0.00     0.212 HD
ENDBRANCH  14  25
ENDBRANCH   1  14
TORSDOF 3
ENDMDL
MODEL 13
REMARK VINA RESULT:      -3.6     14.895     17.434
REMARK  3 active torsions:
REMARK  status: ('A' for Active; 'I' for Inactive)
REMARK    1  A    between atoms: O_1  and  C_2 
REMARK    2  A    between atoms: C_2  and  C_3 
REMARK    3  A    between atoms: C_3  and  O_12 
ROOT
HETATM    1  C   LIG     1      25.278  21.500  20.133  1.00  0.00     0.270 C 
HETATM    2  C   LIG     1      24.736  20.071  20.174  1.00  0.00     0.274 C 
HETATM    3  N   LIG     1      23.689  19.640  19.299  1.00  0.00    -0.276 N 
HETATM    4  C   LIG     1      23.268  20.451  18.206  1.00  0.00     0.329 C 
HETATM    5  N   LIG     1      23.951  21.669  17.926  1.00  0.00    -0.276 N 
HETATM    6  C   LIG     1      25.016  22.123  18.767  1.00  0.00     0.274 C 
HETATM    7  O   LIG     1      25.725  23.090  18.378  1.00  0.00    -0.269 OA
HETATM    8  O   LIG     1      22.314  20.079  17.475  1.00  0.00    -0.247 OA
HETATM    9  O   LIG     1      25.197  19.251  21.015  1.00  0.00    -0.269 OA
HETATM   10  H   LIG     1      23.251  18.703  19.441  1.00  0.00     0.173 HD
HETATM   11  H   LIG     1      23.702  22.213  17.070  1.00  0.00     0.173 HD
ENDROOT
BRANCH   1  12
HETATM   12  O   LIG     1      26.680  21.442  20.289  1.00  0.00    -0.369 OA
HETATM   13  H   LIG     1      27.077  21.067  19.460  1.00  0.00     0.212 HD
ENDBRANCH   1  12
BRANCH   1  14
HETATM   14  C   LIG     1      24.631  22.403  21.264  1.00  0.00     0.270 C 
HETATM   15  C   LIG     1      23.148  22.070  21.393  1.00  0.00     0.274 C 
HETATM   16  N   LIG     1      22.629  21.318  22.494  1.00  0.00    -0.276 N 
HETATM   17  O   LIG     1      22.354  22.443  20.488  1.00  0.00    -0.269 OA
HETATM   18  C   LIG     1      23.451  20.970  23.602  1.00  0.00     0.329 C 
HETATM   19  H   LIG     1      21.624  21.033  22.491  1.00  0.00     0.173 HD
HETATM   20  N   LIG     1      24.794  21.435  23.662  1.00  0.00    -0.276 N 
HETATM   21  O   LIG     1      22.983  20.269  24.538  1.00  0.00    -0.247 OA
HETATM   22  C   LIG     1      25.359  22.206  22.598  1.00  0.00     0.274 C 
HETATM   23  H   LIG     1      25.368  21.233  24.511  1.00  0.00     0.173 HD
HETATM   24  O   LIG     1      26.506  22.703  22.760  1.00  0.00    -0.269 OA
BRANCH  14  25
HETATM   25  O   LIG     1      24.687  23.768  20.907  1.00  0.00    -0.369 OA
HETATM   26  H   LIG     1      25.597  23.987  20.580  1.00  0.00     0.212 HD
ENDBRANCH  14  25
ENDBRANCH   1  14
TORSDOF 3
ENDMDL
MODEL 14
REMARK VINA RESULT:      -3.6     14.223     16.724
REMARK  3 active torsions:
REMARK  status: ('A' for Active; 'I' for Inactive)
REMARK    1  A    between atoms: O_1  and  C_2 
REMARK    2  A    between atoms: C_2  and  C_3 
REMARK    3  A    between atoms: C_3  and  O_12 
ROOT
HETATM    1  C   LIG     1      25.188  22.927  20.322  1.00  0.00     0.270 C 
HETATM    2  C   LIG     1      25.480  22.550  18.869  1.00  0.00     0.274 C 
HETATM    3  N   LIG     1      24.598  21.706  18.122  1.00  0.00    -0.276 N 
HETATM    4  C   LIG     1      23.308  21.370  18.622  1.00  0.00     0.329 C 
HETATM    5  N   LIG     1      22.850  21.946  19.841  1.00  0.00    -0.276 N 
HETATM    6  C   LIG     1      23.695  22.811  20.607  1.00  0.00     0.274 C 
HETATM    7  O   LIG     1      23.192  23.458  21.564  1.00  0.00    -0.269 OA
HETATM    8  O   LIG     1      22.564  20.587  17.975  1.00  0.00    -0.247 OA
HETATM    9  O   LIG     1      26.534  22.965  18.315  1.00  0.00    -0.269 OA
HETATM   10  H   LIG     1      24.891  21.359  17.181  1.00  0.00     0.173 HD
HETATM   11  H   LIG     1      21.870  21.773  20.156  1.00  0.00     0.173 HD
ENDROOT
BRANCH   1  12
HETATM   12  O   LIG     1      25.528  24.286  20.499  1.00  0.00    -0.369 OA
HETATM   13  H   LIG     1      26.271  24.345  21.154  1.00  0.00     0.212 HD
ENDBRANCH   1  12
BRANCH   1  14
HETATM   14  C   LIG     1      25.997  22.016  21.336  1.00  0.00     0.270 C 
HETATM   15  C   LIG     1      26.320  22.818  22.592  1.00  0.00     0.274 C 
HETATM   16  N   LIG     1      25.638  22.601  23.831  1.00  0.00    -0.276 N 
HETATM   17  O   LIG     1      27.196  23.723  22.535  1.00  0.00    -0.269 OA
HETATM   18  C   LIG     1      24.726  21.521  23.991  1.00  0.00     0.329 C 
HETATM   19  H   LIG     1      25.826  23.237  24.637  1.00  0.00     0.173 HD
HETATM   20  N   LIG     1      24.535  20.592  22.931  1.00  0.00    -0.276 N 
HETATM   21  O   LIG     1      24.103  21.377  25.076  1.00  0.00    -0.247 OA
HETATM   22  C   LIG     1      25.206  20.749  21.678  1.00  0.00     0.274 C 
HETATM   23  H   LIG     1      23.916  19.763  23.082  1.00  0.00     0.173 HD
HETATM   24  O   LIG     1      25.104  19.829  20.822  1.00  0.00    -0.269 OA
BRANCH  14  25
HETATM   25  O   LIG     1      27.245  21.644  20.788  1.00  0.00    -0.369 OA
HETATM   26  H   LIG     1      27.129  21.416  19.830  1.00  0.00     0.212 HD
ENDBRANCH  14  25
ENDBRANCH   1  14
TORSDOF 3
ENDMDL
MODEL 15
REMARK VINA RESULT:      -3.4     15.196     17.384
REMARK  3 active torsions:
REMARK  status: ('A' for Active; 'I' for Inactive)
REMARK    1  A    between atoms: O_1  and  C_2 
REMARK    2  A    between atoms: C_2  and  C_3 
REMARK    3  A    between atoms: C_3  and  O_12 
ROOT
HETATM    1  C   LIG     1      24.649  20.577  20.768  1.00  0.00     0.270 C 
HETATM    2  C   LIG     1      25.510  20.970  21.969  1.00  0.00     0.274 C 
HETATM    3  N   LIG     1      24.952  21.102  23.280  1.00  0.00    -0.276 N 
HETATM    4  C   LIG     1      23.630  20.655  23.562  1.00  0.00     0.329 C 
HETATM    5  N   LIG     1      22.878  19.991  22.551  1.00  0.00    -0.276 N 
HETATM    6  C   LIG     1      23.409  19.822  21.233  1.00  0.00     0.274 C 
HETATM    7  O   LIG     1      22.809  19.058  20.430  1.00  0.00    -0.269 OA
HETATM    8  O   LIG     1      23.137  20.823  24.708  1.00  0.00    -0.247 OA
HETATM    9  O   LIG     1      26.737  21.212  21.806  1.00  0.00    -0.269 OA
HETATM   10  H   LIG     1      25.535  21.500  24.050  1.00  0.00     0.173 HD
HETATM   11  H   LIG     1      21.947  19.581  22.788  1.00  0.00     0.173 HD
ENDROOT
BRANCH   1  12
HETATM   12  O   LIG     1      25.393  19.680  19.971  1.00  0.00    -0.369 OA
HETATM   13  H   LIG     1      26.305  20.049  19.844  1.00  0.00     0.212 HD
ENDBRANCH   1  12
BRANCH   1  14
HETATM   14  C   LIG     1      24.215  21.845  19.921  1.00  0.00     0.270 C 
HETATM   15  C   LIG     1      24.463  23.109  20.735  1.00  0.00     0.274 C 
HETATM   16  N   LIG     1      25.544  24.000  20.450  1.00  0.00    -0.276 N 
HETATM   17  O   LIG     1      23.709  23.367  21.713  1.00  0.00    -0.269 OA
HETATM   18  C   LIG     1      26.357  23.828  19.295  1.00  0.00     0.329 C 
HETATM   19  H   LIG     1      25.732  24.802  21.093  1.00  0.00     0.173 HD
HETATM   20  N   LIG     1      26.052  22.798  18.362  1.00  0.00    -0.276 N 
HETATM   21  O   LIG     1      27.332  24.598  19.088  1.00  0.00    -0.247 OA
HETATM   22  C   LIG     1      24.970  21.891  18.588  1.00  0.00     0.274 C 
HETATM   23  H   LIG     1      26.611  22.722  17.482  1.00  0.00     0.173 HD
HETATM   24  O   LIG     1      24.662  21.083  17.670  1.00  0.00    -0.269 OA
BRANCH  14  25
HETATM   25  O   LIG     1      22.827  21.821  19.662  1.00  0.00    -0.369 OA
HETATM   26  H   LIG     1      22.355  22.364  20.343  1.00  0.00     0.212 HD
ENDBRANCH  14  25
ENDBRANCH   1  14
TORSDOF 3
ENDMDL
MODEL 16
REMARK VINA RESULT:      -3.4     14.291     17.206
REMARK  3 active torsions:
REMARK  status: ('A' for Active; 'I' for Inactive)
REMARK    1  A    between atoms: O_1  and  C_2 
REMARK    2  A    between atoms: C_2  and  C_3 
REMARK    3  A    between atoms: C_3  and  O_12 
ROOT
HETATM    1  C   LIG     1      25.543  23.095  20.985  1.00  0.00     0.270 C 
HETATM    2  C   LIG     1      24.270  23.032  21.829  1.00  0.00     0.274 C 
HETATM    3  N   LIG     1      24.309  22.711  23.223  1.00  0.00    -0.276 N 
HETATM    4  C   LIG     1      25.546  22.661  23.928  1.00  0.00     0.329 C 
HETATM    5  N   LIG     1      26.754  23.015  23.263  1.00  0.00    -0.276 N 
HETATM    6  C   LIG     1      26.752  23.361  21.874  1.00  0.00     0.274 C 
HETATM    7  O   LIG     1      27.794  23.862  21.372  1.00  0.00    -0.269 OA
HETATM    8  O   LIG     1      25.568  22.330  25.142  1.00  0.00    -0.247 OA
HETATM    9  O   LIG     1      23.150  23.240  21.288  1.00  0.00    -0.269 OA
HETATM   10  H   LIG     1      23.417  22.546  23.739  1.00  0.00     0.173 HD
HETATM   11  H   LIG     1      27.644  23.069  23.805  1.00  0.00     0.173 HD
ENDROOT
BRANCH   1  12
HETATM   12  O   LIG     1      25.435  24.196  20.109  1.00  0.00    -0.369 OA
HETATM   13  H   LIG     1      26.338  24.419  19.765  1.00  0.00     0.212 HD
ENDBRANCH   1  12
BRANCH   1  14
HETATM   14  C   LIG     1      25.767  21.755  20.167  1.00  0.00     0.270 C 
HETATM   15  C   LIG     1      24.776  20.698  20.641  1.00  0.00     0.274 C 
HETATM   16  N   LIG     1      23.642  20.311  19.860  1.00  0.00    -0.276 N 
HETATM   17  O   LIG     1      24.941  20.165  21.772  1.00  0.00    -0.269 OA
HETATM   18  C   LIG     1      23.464  20.789  18.531  1.00  0.00     0.329 C 
HETATM   19  H   LIG     1      22.939  19.654  20.267  1.00  0.00     0.173 HD
HETATM   20  N   LIG     1      24.463  21.607  17.933  1.00  0.00    -0.276 N 
HETATM   21  O   LIG     1      22.435  20.471  17.880  1.00  0.00    -0.247 OA
HETATM   22  C   LIG     1      25.626  22.008  18.662  1.00  0.00     0.274 C 
HETATM   23  H   LIG     1      24.357  21.896  16.934  1.00  0.00     0.173 HD
HETATM   24  O   LIG     1      26.539  22.621  18.045  1.00  0.00    -0.269 OA
BRANCH  14  25
HETATM   25  O   LIG     1      27.049  21.221  20.424  1.00  0.00    -0.369 OA
HETATM   26  H   LIG     1      27.211  20.447  19.826  1.00  0.00     0.212 HD
ENDBRANCH  14  25
ENDBRANCH   1  14
TORSDOF 3
ENDMDL
MODEL 17
REMARK VINA RESULT:      -3.4     15.810     18.227
REMARK  3 active torsions:
REMARK  status: ('A' for Active; 'I' for Inactive)
REMARK    1  A    between atoms: O_1  and  C_2 
REMARK    2  A    between atoms: C_2  and  C_3 
REMARK    3  A    between atoms: C_3  and  O_12 
ROOT
HETATM    1  C   LIG     1      23.916  20.162  19.713  1.00  0.00     0.270 C 
HETATM    2  C   LIG     1      23.433  19.824  18.302  1.00  0.00     0.274 C 
HETATM    3  N   LIG     1      24.342  19.734  17.200  1.00  0.00    -0.276 N 
HETATM    4  C   LIG     1      25.750  19.730  17.411  1.00  0.00     0.329 C 
HETATM    5  N   LIG     1      26.267  19.731  18.738  1.00  0.00    -0.276 N 
HETATM    6  C   LIG     1      25.389  19.800  19.866  1.00  0.00     0.274 C 
HETATM    7  O   LIG     1      25.862  19.595  21.016  1.00  0.00    -0.269 OA
HETATM    8  O   LIG     1      26.536  19.699  16.428  1.00  0.00    -0.247 OA
HETATM    9  O   LIG     1      22.203  19.646  18.088  1.00  0.00    -0.269 OA
HETATM   10  H   LIG     1      23.967  19.634  16.230  1.00  0.00     0.173 HD
HETATM   11  H   LIG     1      27.295  19.633  18.890  1.00  0.00     0.173 HD
ENDROOT
BRANCH   1  12
HETATM   12  O   LIG     1      23.204  19.353  20.625  1.00  0.00    -0.369 OA
HETATM   13  H   LIG     1      23.169  18.427  20.270  1.00  0.00     0.212 HD
ENDBRANCH   1  12
BRANCH   1  14
HETATM   14  C   LIG     1      23.705  21.697  20.050  1.00  0.00     0.270 C 
HETATM   15  C   LIG     1      23.604  21.875  21.561  1.00  0.00     0.274 C 
HETATM   16  N   LIG     1      24.667  22.438  22.335  1.00  0.00    -0.276 N 
HETATM   17  O   LIG     1      22.563  21.488  22.157  1.00  0.00    -0.269 OA
HETATM   18  C   LIG     1      25.817  22.999  21.711  1.00  0.00     0.329 C 
HETATM   19  H   LIG     1      24.592  22.453  23.376  1.00  0.00     0.173 HD
HETATM   20  N   LIG     1      25.888  23.072  20.292  1.00  0.00    -0.276 N 
HETATM   21  O   LIG     1      26.760  23.448  22.414  1.00  0.00    -0.247 OA
HETATM   22  C   LIG     1      24.845  22.541  19.470  1.00  0.00     0.274 C 
HETATM   23  H   LIG     1      26.704  23.547  19.844  1.00  0.00     0.173 HD
HETATM   24  O   LIG     1      24.895  22.749  18.227  1.00  0.00    -0.269 OA
BRANCH  14  25
HETATM   25  O   LIG     1      22.478  22.160  19.527  1.00  0.00    -0.369 OA
HETATM   26  H   LIG     1      21.977  22.640  20.235  1.00  0.00     0.212 HD
ENDBRANCH  14  25
ENDBRANCH   1  14
TORSDOF 3
ENDMDL
MODEL 18
REMARK VINA RESULT:      -3.2     16.126     18.640
REMARK  3 active torsions:
REMARK  status: ('A' for Active; 'I' for Inactive)
REMARK    1  A    between atoms: O_1  and  C_2 
REMARK    2  A    between atoms: C_2  and  C_3 
REMARK    3  A    between atoms: C_3  and  O_12 
ROOT
HETATM    1  C   LIG     1      26.164  21.197  19.172  1.00  0.00     0.270 C 
HETATM    2  C   LIG     1      25.358  19.935  19.476  1.00  0.00     0.274 C 
HETATM    3  N   LIG     1      24.866  19.089  18.431  1.00  0.00    -0.276 N 
HETATM    4  C   LIG     1      25.297  19.263  17.085  1.00  0.00     0.329 C 
HETATM    5  N   LIG     1      26.293  20.233  16.781  1.00  0.00    -0.276 N 
HETATM    6  C   LIG     1      26.824  21.084  17.802  1.00  0.00     0.274 C 
HETATM    7  O   LIG     1      27.840  21.784  17.542  1.00  0.00    -0.269 OA
HETATM    8  O   LIG     1      24.818  18.542  16.170  1.00  0.00    -0.247 OA
HETATM    9  O   LIG     1      25.091  19.636  20.672  1.00  0.00    -0.269 OA
HETATM   10  H   LIG     1      24.208  18.312  18.664  1.00  0.00     0.173 HD
HETATM   11  H   LIG     1      26.675  20.293  15.811  1.00  0.00     0.173 HD
ENDROOT
BRANCH   1  12
HETATM   12  O   LIG     1      27.208  21.289  20.117  1.00  0.00    -0.369 OA
HETATM   13  H   LIG     1      28.020  21.635  19.662  1.00  0.00     0.212 HD
ENDBRANCH   1  12
BRANCH   1  14
HETATM   14  C   LIG     1      25.256  22.496  19.220  1.00  0.00     0.270 C 
HETATM   15  C   LIG     1      23.825  22.129  18.843  1.00  0.00     0.274 C 
HETATM   16  N   LIG     1      22.776  22.055  19.814  1.00  0.00    -0.276 N 
HETATM   17  O   LIG     1      23.557  21.853  17.643  1.00  0.00    -0.269 OA
HETATM   18  C   LIG     1      22.987  22.466  21.160  1.00  0.00     0.329 C 
HETATM   19  H   LIG     1      21.835  21.707  19.526  1.00  0.00     0.173 HD
HETATM   20  N   LIG     1      24.235  23.031  21.540  1.00  0.00    -0.276 N 
HETATM   21  O   LIG     1      22.062  22.348  22.007  1.00  0.00    -0.247 OA
HETATM   22  C   LIG     1      25.312  23.147  20.606  1.00  0.00     0.274 C 
HETATM   23  H   LIG     1      24.358  23.393  22.513  1.00  0.00     0.173 HD
HETATM   24  O   LIG     1      26.348  23.772  20.959  1.00  0.00    -0.269 OA
BRANCH  14  25
HETATM   25  O   LIG     1      25.677  23.437  18.254  1.00  0.00    -0.369 OA
HETATM   26  H   LIG     1      25.362  24.340  18.514  1.00  0.00     0.212 HD
ENDBRANCH  14  25
ENDBRANCH   1  14
TORSDOF 3
ENDMDL
MODEL 19
REMARK VINA RESULT:      -3.2     16.964     18.612
REMARK  3 active torsions:
REMARK  status: ('A' for Active; 'I' for Inactive)
REMARK    1  A    between atoms: O_1  and  C_2 
REMARK    2  A    between atoms: C_2  and  C_3 
REMARK    3  A    between atoms: C_3  and  O_12 
ROOT
HETATM    1  C   LIG     1      24.783  22.211  20.041  1.00  0.00     0.270 C 
HETATM    2  C   LIG     1      23.394  21.644  20.337  1.00  0.00     0.274 C 
HETATM    3  N   LIG     1      23.195  20.256  20.620  1.00  0.00    -0.276 N 
HETATM    4  C   LIG     1      24.301  19.392  20.861  1.00  0.00     0.329 C 
HETATM    5  N   LIG     1      25.620  19.927  20.906  1.00  0.00    -0.276 N 
HETATM    6  C   LIG     1      25.857  21.315  20.648  1.00  0.00     0.274 C 
HETATM    7  O   LIG     1      26.998  21.791  20.894  1.00  0.00    -0.269 OA
HETATM    8  O   LIG     1      24.112  18.163  21.061  1.00  0.00    -0.247 OA
HETATM    9  O   LIG     1      22.389  22.405  20.306  1.00  0.00    -0.269 OA
HETATM   10  H   LIG     1      22.224  19.877  20.685  1.00  0.00     0.173 HD
HETATM   11  H   LIG     1      26.418  19.310  21.176  1.00  0.00     0.173 HD
ENDROOT
BRANCH   1  12
HETATM   12  O   LIG     1      24.892  23.463  20.683  1.00  0.00    -0.369 OA
HETATM   13  H   LIG     1      25.748  23.886  20.413  1.00  0.00     0.212 HD
ENDBRANCH   1  12
BRANCH   1  14
HETATM   14  C   LIG     1      25.033  22.362  18.483  1.00  0.00     0.270 C 
HETATM   15  C   LIG     1      26.094  23.430  18.240  1.00  0.00     0.274 C 
HETATM   16  N   LIG     1      27.429  23.101  17.843  1.00  0.00    -0.276 N 
HETATM   17  O   LIG     1      25.799  24.642  18.422  1.00  0.00    -0.269 OA
HETATM   18  C   LIG     1      27.792  21.766  17.510  1.00  0.00     0.329 C 
HETATM   19  H   LIG     1      28.146  23.858  17.782  1.00  0.00     0.173 HD
HETATM   20  N   LIG     1      26.801  20.746  17.497  1.00  0.00    -0.276 N 
HETATM   21  O   LIG     1      28.983  21.494  17.207  1.00  0.00    -0.247 OA
HETATM   22  C   LIG     1      25.447  21.022  17.866  1.00  0.00     0.274 C 
HETATM   23  H   LIG     1      27.062  19.783  17.184  1.00  0.00     0.173 HD
HETATM   24  O   LIG     1      24.585  20.115  17.712  1.00  0.00    -0.269 OA
BRANCH  14  25
HETATM   25  O   LIG     1      23.868  22.826  17.833  1.00  0.00    -0.369 OA
HETATM   26  H   LIG     1      24.075  23.660  17.339  1.00  0.00     0.212 HD
ENDBRANCH  14  25
ENDBRANCH   1  14
TORSDOF 3
ENDMDL
MODEL 20
REMARK VINA RESULT:      -3.0     15.834     18.545
REMARK  3 active torsions:
REMARK  status: ('A' for Active; 'I' for Inactive)
REMARK    1  A    between atoms: O_1  and  C_2 
REMARK    2  A    between atoms: C_2  and  C_3 
REMARK    3  A    between atoms: C_3  and  O_12 
ROOT
HETATM    1  C   LIG     1      25.171  21.468  20.307  1.00  0.00     0.270 C 
HETATM    2  C   LIG     1      25.851  21.448  18.938  1.00  0.00     0.274 C 
HETATM    3  N   LIG     1      26.209  22.656  18.261  1.00  0.00    -0.276 N 
HETATM    4  C   LIG     1      26.154  23.913  18.928  1.00  0.00     0.329 C 
HETATM    5  N   LIG     1      25.820  23.966  20.311  1.00  0.00    -0.276 N 
HETATM    6  C   LIG     1      25.476  22.776  21.028  1.00  0.00     0.274 C 
HETATM    7  O   LIG     1      25.386  22.829  22.284  1.00  0.00    -0.269 OA
HETATM    8  O   LIG     1      26.426  24.972  18.304  1.00  0.00    -0.247 OA
HETATM    9  O   LIG     1      26.083  20.345  18.372  1.00  0.00    -0.269 OA
HETATM   10  H   LIG     1      26.549  22.613  17.274  1.00  0.00     0.173 HD
HETATM   11  H   LIG     1      25.873  24.876  20.820  1.00  0.00     0.173 HD
ENDROOT
BRANCH   1  12
HETATM   12  O   LIG     1      25.730  20.435  21.090  1.00  0.00    -0.369 OA
HETATM   13  H   LIG     1      26.670  20.294  20.807  1.00  0.00     0.212 HD
ENDBRANCH   1  12
BRANCH   1  14
HETATM   14  C   LIG     1      23.601  21.282  20.182  1.00  0.00     0.270 C 
HETATM   15  C   LIG     1      23.195  21.368  18.715  1.00  0.00     0.274 C 
HETATM   16  N   LIG     1      22.818  20.213  17.959  1.00  0.00    -0.276 N 
HETATM   17  O   LIG     1      23.219  22.487  18.135  1.00  0.00    -0.269 OA
HETATM   18  C   LIG     1      22.659  18.944  18.583  1.00  0.00     0.329 C 
HETATM   19  H   LIG     1      22.640  20.306  16.934  1.00  0.00     0.173 HD
HETATM   20  N   LIG     1      22.804  18.824  19.993  1.00  0.00    -0.276 N 
HETATM   21  O   LIG     1      22.370  17.932  17.890  1.00  0.00    -0.247 OA
HETATM   22  C   LIG     1      23.162  19.950  20.799  1.00  0.00     0.274 C 
HETATM   23  H   LIG     1      22.618  17.903  20.450  1.00  0.00     0.173 HD
HETATM   24  O   LIG     1      23.148  19.819  22.053  1.00  0.00    -0.269 OA
BRANCH  14  25
HETATM   25  O   LIG     1      22.919  22.335  20.830  1.00  0.00    -0.369 OA
HETATM   26  H   LIG     1      23.385  22.558  21.677  1.00  0.00     0.212 HD
ENDBRANCH  14  25
ENDBRANCH   1  14
TORSDOF 3
ENDMDL
