REMARK  0 active torsions:
REMARK  status: ('A' for Active; 'I' for Inactive)
ROOT
HETATM    1  O   LIG     1      -2.452   0.094  -1.570  1.00  0.00    -0.297 OA
HETATM    2  C   LIG     1      -1.396   0.349  -1.010  1.00  0.00     0.136 C 
HETATM    3  C   LIG     1      -0.567   1.573  -1.247  1.00  0.00     0.084 C 
HETATM    4  C   LIG     1       0.529   1.352  -0.167  1.00  0.00     0.001 C 
HETATM    5  C   LIG     1      -0.151   1.609   1.206  1.00  0.00     0.007 C 
HETATM    6  C   LIG     1      -1.053   0.362   1.386  1.00  0.00     0.018 C 
HETATM    7  C   LIG     1       0.731  -0.183  -0.165  1.00  0.00    -0.029 C 
HETATM    8  C   LIG     1       1.262  -0.745  -1.520  1.00  0.00     0.016 C 
HETATM    9  C   LIG     1       1.710  -0.689   0.936  1.00  0.00     0.016 C 
HETATM   10  C   LIG     1      -0.766  -0.452   0.102  1.00  0.00     0.024 C 
HETATM   11  C   LIG     1      -1.196  -1.923   0.164  1.00  0.00     0.024 C 
ENDROOT
TORSDOF 0
