REMARK  4 active torsions:
REMARK  status: ('A' for Active; 'I' for Inactive)
REMARK    1  A    between atoms: C_13  and  O_14 
REMARK    2  A    between atoms: C_21  and  C_27 
REMARK    3  A    between atoms: C_27  and  C_28 
REMARK    4  A    between atoms: C_28  and  O_29 
ROOT
HETATM    1  O   LIG     1       6.228   3.212  -0.129  1.00  0.00    -0.289 OA
HETATM    2  C   LIG     1       5.333   2.339   0.018  1.00  0.00     0.172 C 
HETATM    3  C   LIG     1       4.691   2.152   1.319  1.00  0.00     0.052 C 
HETATM    4  C   LIG     1       3.822   1.155   1.511  1.00  0.00    -0.006 C 
HETATM    5  C   LIG     1       3.600   0.051   0.472  1.00  0.00     0.036 C 
HETATM    6  C   LIG     1       4.576  -1.087   0.853  1.00  0.00     0.028 C 
HETATM    7  C   LIG     1       3.991   0.554  -0.951  1.00  0.00    -0.061 C 
HETATM    8  C   LIG     1       3.227   0.041  -2.166  1.00  0.00     0.036 C 
HETATM    9  C   LIG     1       1.695   0.262  -2.022  1.00  0.00     0.013 C 
HETATM   10  C   LIG     1       1.291   0.468  -0.546  1.00  0.00     0.035 C 
HETATM   11  C   LIG     1       2.099  -0.495   0.401  1.00  0.00     0.147 C 
HETATM   12  F   LIG     1       2.236  -1.706  -0.252  1.00  0.00    -0.238 F 
HETATM   13  C   LIG     1       1.315  -0.876   1.751  1.00  0.00     0.160 C 
HETATM   14  C   LIG     1      -0.237  -1.232   1.614  1.00  0.00     0.048 C 
HETATM   15  C   LIG     1      -0.862  -0.909   0.222  1.00  0.00     0.004 C 
HETATM   16  C   LIG     1      -0.570  -2.118  -0.727  1.00  0.00     0.019 C 
HETATM   17  C   LIG     1      -0.210   0.444  -0.226  1.00  0.00     0.007 C 
HETATM   18  C   LIG     1      -1.296   1.311  -0.903  1.00  0.00     0.041 C 
HETATM   19  C   LIG     1      -2.424   0.940   0.069  1.00  0.00     0.168 C 
HETATM   20  C   LIG     1      -2.428  -0.547   0.158  1.00  0.00     0.160 C 
HETATM   21  O   LIG     1      -3.266  -0.684   1.275  1.00  0.00    -0.334 OA
HETATM   22  C   LIG     1      -4.238   0.376   1.076  1.00  0.00     0.159 C 
HETATM   23  C   LIG     1      -4.417   1.143   2.400  1.00  0.00     0.078 C 
HETATM   24  C   LIG     1      -5.605  -0.205   0.672  1.00  0.00     0.078 C 
HETATM   25  O   LIG     1      -3.768   1.271   0.046  1.00  0.00    -0.347 OA
HETATM   26  C   LIG     1       4.872   1.553  -1.124  1.00  0.00     0.058 C 
ENDROOT
BRANCH  20  27
HETATM   27  C   LIG     1      -3.168  -1.259  -1.019  1.00  0.00     0.188 C 
HETATM   28  O   LIG     1      -3.629  -2.373  -0.804  1.00  0.00    -0.292 OA
BRANCH  27  29
HETATM   29  C   LIG     1      -3.368  -0.671  -2.401  1.00  0.00     0.245 C 
BRANCH  29  30
HETATM   30  O   LIG     1      -4.400  -1.333  -3.083  1.00  0.00    -0.393 OA
HETATM   31  H   LIG     1      -4.011  -2.169  -3.452  1.00  0.00     0.209 HD
ENDBRANCH  29  30
ENDBRANCH  27  29
ENDBRANCH  20  27
BRANCH  13  32
HETATM   32  O   LIG     1       1.472   0.070   2.774  1.00  0.00    -0.392 OA
HETATM   33  H   LIG     1       1.128   0.939   2.450  1.00  0.00     0.210 HD
ENDBRANCH  13  32
TORSDOF 4
