MODEL 1
REMARK VINA RESULT:      -5.1      0.000      0.000
REMARK  0 active torsions:
REMARK  status: ('A' for Active; 'I' for Inactive)
ROOT
HETATM    1  O   LIG     1      18.010  36.611  20.626  1.00  0.00    -0.297 OA
HETATM    2  C   LIG     1      17.682  37.392  21.508  1.00  0.00     0.136 C 
HETATM    3  C   LIG     1      17.801  38.882  21.429  1.00  0.00     0.084 C 
HETATM    4  C   LIG     1      17.115  39.264  22.771  1.00  0.00     0.001 C 
HETATM    5  C   LIG     1      15.598  38.990  22.581  1.00  0.00     0.007 C 
HETATM    6  C   LIG     1      15.520  37.442  22.595  1.00  0.00     0.018 C 
HETATM    7  C   LIG     1      17.548  38.132  23.734  1.00  0.00    -0.029 C 
HETATM    8  C   LIG     1      19.088  38.070  23.974  1.00  0.00     0.016 C 
HETATM    9  C   LIG     1      16.885  38.213  25.141  1.00  0.00     0.016 C 
HETATM   10  C   LIG     1      16.997  37.030  22.802  1.00  0.00     0.024 C 
HETATM   11  C   LIG     1      17.201  35.581  23.260  1.00  0.00     0.024 C 
ENDROOT
TORSDOF 0
ENDMDL
MODEL 2
REMARK VINA RESULT:      -4.3      1.446      2.822
REMARK  0 active torsions:
REMARK  status: ('A' for Active; 'I' for Inactive)
ROOT
HETATM    1  O   LIG     1      19.213  38.633  23.583  1.00  0.00    -0.297 OA
HETATM    2  C   LIG     1      18.099  38.148  23.455  1.00  0.00     0.136 C 
HETATM    3  C   LIG     1      17.153  37.852  24.577  1.00  0.00     0.084 C 
HETATM    4  C   LIG     1      15.917  37.391  23.754  1.00  0.00     0.001 C 
HETATM    5  C   LIG     1      15.334  38.667  23.088  1.00  0.00     0.007 C 
HETATM    6  C   LIG     1      16.371  38.986  21.982  1.00  0.00     0.018 C 
HETATM    7  C   LIG     1      16.542  36.635  22.556  1.00  0.00    -0.029 C 
HETATM    8  C   LIG     1      17.352  35.368  22.970  1.00  0.00     0.016 C 
HETATM    9  C   LIG     1      15.502  36.167  21.495  1.00  0.00     0.016 C 
HETATM   10  C   LIG     1      17.406  37.849  22.149  1.00  0.00     0.024 C 
HETATM   11  C   LIG     1      18.343  37.650  20.951  1.00  0.00     0.024 C 
ENDROOT
TORSDOF 0
ENDMDL
MODEL 3
REMARK VINA RESULT:      -4.1     19.132     20.430
REMARK  0 active torsions:
REMARK  status: ('A' for Active; 'I' for Inactive)
ROOT
HETATM    1  O   LIG     1      23.204  23.783  35.059  1.00  0.00    -0.297 OA
HETATM    2  C   LIG     1      22.137  23.234  35.290  1.00  0.00     0.136 C 
HETATM    3  C   LIG     1      21.097  23.734  36.243  1.00  0.00     0.084 C 
HETATM    4  C   LIG     1      19.981  22.685  35.977  1.00  0.00     0.001 C 
HETATM    5  C   LIG     1      19.402  23.009  34.573  1.00  0.00     0.007 C 
HETATM    6  C   LIG     1      20.530  22.547  33.616  1.00  0.00     0.018 C 
HETATM    7  C   LIG     1      20.768  21.376  35.727  1.00  0.00    -0.029 C 
HETATM    8  C   LIG     1      21.598  20.901  36.960  1.00  0.00     0.016 C 
HETATM    9  C   LIG     1      19.872  20.172  35.310  1.00  0.00     0.016 C 
HETATM   10  C   LIG     1      21.602  22.008  34.593  1.00  0.00     0.024 C 
HETATM   11  C   LIG     1      22.668  21.114  33.947  1.00  0.00     0.024 C 
ENDROOT
TORSDOF 0
ENDMDL
MODEL 4
REMARK VINA RESULT:      -4.0     17.160     18.498
REMARK  0 active torsions:
REMARK  status: ('A' for Active; 'I' for Inactive)
ROOT
HETATM    1  O   LIG     1      25.458  29.965  37.466  1.00  0.00    -0.297 OA
HETATM    2  C   LIG     1      26.227  30.090  36.524  1.00  0.00     0.136 C 
HETATM    3  C   LIG     1      26.135  31.148  35.469  1.00  0.00     0.084 C 
HETATM    4  C   LIG     1      27.437  30.836  34.680  1.00  0.00     0.001 C 
HETATM    5  C   LIG     1      28.616  31.295  35.581  1.00  0.00     0.007 C 
HETATM    6  C   LIG     1      28.638  30.222  36.699  1.00  0.00     0.018 C 
HETATM    7  C   LIG     1      27.539  29.293  34.746  1.00  0.00    -0.029 C 
HETATM    8  C   LIG     1      26.356  28.558  34.043  1.00  0.00     0.016 C 
HETATM    9  C   LIG     1      28.847  28.720  34.122  1.00  0.00     0.016 C 
HETATM   10  C   LIG     1      27.479  29.283  36.289  1.00  0.00     0.024 C 
HETATM   11  C   LIG     1      27.498  27.906  36.965  1.00  0.00     0.024 C 
ENDROOT
TORSDOF 0
ENDMDL
MODEL 5
REMARK VINA RESULT:      -3.9     17.265     18.811
REMARK  0 active torsions:
REMARK  status: ('A' for Active; 'I' for Inactive)
ROOT
HETATM    1  O   LIG     1      27.372  32.675  37.963  1.00  0.00    -0.297 OA
HETATM    2  C   LIG     1      27.136  31.748  37.201  1.00  0.00     0.136 C 
HETATM    3  C   LIG     1      25.843  31.535  36.477  1.00  0.00     0.084 C 
HETATM    4  C   LIG     1      26.236  30.305  35.611  1.00  0.00     0.001 C 
HETATM    5  C   LIG     1      27.206  30.832  34.517  1.00  0.00     0.007 C 
HETATM    6  C   LIG     1      28.507  31.110  35.311  1.00  0.00     0.018 C 
HETATM    7  C   LIG     1      27.175  29.495  36.537  1.00  0.00    -0.029 C 
HETATM    8  C   LIG     1      26.478  28.975  37.833  1.00  0.00     0.016 C 
HETATM    9  C   LIG     1      27.817  28.251  35.853  1.00  0.00     0.016 C 
HETATM   10  C   LIG     1      28.120  30.697  36.751  1.00  0.00     0.024 C 
HETATM   11  C   LIG     1      29.307  30.474  37.697  1.00  0.00     0.024 C 
ENDROOT
TORSDOF 0
ENDMDL
MODEL 6
REMARK VINA RESULT:      -3.9     17.250     18.587
REMARK  0 active torsions:
REMARK  status: ('A' for Active; 'I' for Inactive)
ROOT
HETATM    1  O   LIG     1      28.453  31.367  34.188  1.00  0.00    -0.297 OA
HETATM    2  C   LIG     1      28.160  31.128  35.351  1.00  0.00     0.136 C 
HETATM    3  C   LIG     1      28.939  31.577  36.547  1.00  0.00     0.084 C 
HETATM    4  C   LIG     1      27.992  31.073  37.672  1.00  0.00     0.001 C 
HETATM    5  C   LIG     1      26.750  32.007  37.650  1.00  0.00     0.007 C 
HETATM    6  C   LIG     1      26.006  31.566  36.365  1.00  0.00     0.018 C 
HETATM    7  C   LIG     1      27.430  29.747  37.106  1.00  0.00    -0.029 C 
HETATM    8  C   LIG     1      28.522  28.659  36.865  1.00  0.00     0.016 C 
HETATM    9  C   LIG     1      26.342  29.088  38.005  1.00  0.00     0.016 C 
HETATM   10  C   LIG     1      26.908  30.431  35.824  1.00  0.00     0.024 C 
HETATM   11  C   LIG     1      26.242  29.521  34.785  1.00  0.00     0.024 C 
ENDROOT
TORSDOF 0
ENDMDL
MODEL 7
REMARK VINA RESULT:      -3.9     19.194     20.685
REMARK  0 active torsions:
REMARK  status: ('A' for Active; 'I' for Inactive)
ROOT
HETATM    1  O   LIG     1      22.010  20.939  33.561  1.00  0.00    -0.297 OA
HETATM    2  C   LIG     1      21.990  21.828  34.400  1.00  0.00     0.136 C 
HETATM    3  C   LIG     1      21.800  23.284  34.109  1.00  0.00     0.084 C 
HETATM    4  C   LIG     1      21.746  23.830  35.563  1.00  0.00     0.001 C 
HETATM    5  C   LIG     1      20.382  23.375  36.152  1.00  0.00     0.007 C 
HETATM    6  C   LIG     1      20.589  21.855  36.373  1.00  0.00     0.018 C 
HETATM    7  C   LIG     1      22.759  22.938  36.322  1.00  0.00    -0.029 C 
HETATM    8  C   LIG     1      24.224  23.077  35.804  1.00  0.00     0.016 C 
HETATM    9  C   LIG     1      22.807  23.204  37.857  1.00  0.00     0.016 C 
HETATM   10  C   LIG     1      22.044  21.638  35.895  1.00  0.00     0.024 C 
HETATM   11  C   LIG     1      22.683  20.323  36.358  1.00  0.00     0.024 C 
ENDROOT
TORSDOF 0
ENDMDL
MODEL 8
REMARK VINA RESULT:      -3.9      1.545      2.824
REMARK  0 active torsions:
REMARK  status: ('A' for Active; 'I' for Inactive)
ROOT
HETATM    1  O   LIG     1      17.473  34.983  24.387  1.00  0.00    -0.297 OA
HETATM    2  C   LIG     1      17.086  35.758  23.525  1.00  0.00     0.136 C 
HETATM    3  C   LIG     1      16.188  35.399  22.381  1.00  0.00     0.084 C 
HETATM    4  C   LIG     1      15.986  36.811  21.763  1.00  0.00     0.001 C 
HETATM    5  C   LIG     1      15.066  37.591  22.742  1.00  0.00     0.007 C 
HETATM    6  C   LIG     1      16.004  37.883  23.941  1.00  0.00     0.018 C 
HETATM    7  C   LIG     1      17.359  37.496  21.967  1.00  0.00    -0.029 C 
HETATM    8  C   LIG     1      18.527  36.793  21.206  1.00  0.00     0.016 C 
HETATM    9  C   LIG     1      17.389  38.992  21.534  1.00  0.00     0.016 C 
HETATM   10  C   LIG     1      17.339  37.245  23.490  1.00  0.00     0.024 C 
HETATM   11  C   LIG     1      18.571  37.710  24.276  1.00  0.00     0.024 C 
ENDROOT
TORSDOF 0
ENDMDL
MODEL 9
REMARK VINA RESULT:      -3.8     17.237     18.582
REMARK  0 active torsions:
REMARK  status: ('A' for Active; 'I' for Inactive)
ROOT
HETATM    1  O   LIG     1      26.914  27.546  35.459  1.00  0.00    -0.297 OA
HETATM    2  C   LIG     1      27.071  28.756  35.541  1.00  0.00     0.136 C 
HETATM    3  C   LIG     1      27.040  29.710  34.388  1.00  0.00     0.084 C 
HETATM    4  C   LIG     1      27.169  31.051  35.164  1.00  0.00     0.001 C 
HETATM    5  C   LIG     1      25.810  31.274  35.883  1.00  0.00     0.007 C 
HETATM    6  C   LIG     1      25.843  30.225  37.023  1.00  0.00     0.018 C 
HETATM    7  C   LIG     1      28.120  30.702  36.334  1.00  0.00    -0.029 C 
HETATM    8  C   LIG     1      29.546  30.268  35.873  1.00  0.00     0.016 C 
HETATM    9  C   LIG     1      28.322  31.865  37.351  1.00  0.00     0.016 C 
HETATM   10  C   LIG     1      27.218  29.546  36.817  1.00  0.00     0.024 C 
HETATM   11  C   LIG     1      27.724  28.742  38.022  1.00  0.00     0.024 C 
ENDROOT
TORSDOF 0
ENDMDL
MODEL 10
REMARK VINA RESULT:      -3.8     15.770     17.402
REMARK  0 active torsions:
REMARK  status: ('A' for Active; 'I' for Inactive)
ROOT
HETATM    1  O   LIG     1      24.916  22.518  18.540  1.00  0.00    -0.297 OA
HETATM    2  C   LIG     1      24.517  22.410  19.690  1.00  0.00     0.136 C 
HETATM    3  C   LIG     1      25.004  23.218  20.852  1.00  0.00     0.084 C 
HETATM    4  C   LIG     1      24.035  22.697  21.950  1.00  0.00     0.001 C 
HETATM    5  C   LIG     1      22.639  23.296  21.623  1.00  0.00     0.007 C 
HETATM    6  C   LIG     1      22.197  22.489  20.376  1.00  0.00     0.018 C 
HETATM    7  C   LIG     1      23.855  21.201  21.593  1.00  0.00    -0.029 C 
HETATM    8  C   LIG     1      25.176  20.375  21.677  1.00  0.00     0.016 C 
HETATM    9  C   LIG     1      22.814  20.460  22.485  1.00  0.00     0.016 C 
HETATM   10  C   LIG     1      23.388  21.526  20.157  1.00  0.00     0.024 C 
HETATM   11  C   LIG     1      23.086  20.327  19.249  1.00  0.00     0.024 C 
ENDROOT
TORSDOF 0
ENDMDL
MODEL 11
REMARK VINA RESULT:      -3.8     16.034     17.793
REMARK  0 active torsions:
REMARK  status: ('A' for Active; 'I' for Inactive)
ROOT
HETATM    1  O   LIG     1      26.356  20.873  20.585  1.00  0.00    -0.297 OA
HETATM    2  C   LIG     1      25.192  20.991  20.939  1.00  0.00     0.136 C 
HETATM    3  C   LIG     1      24.244  19.858  21.181  1.00  0.00     0.084 C 
HETATM    4  C   LIG     1      23.022  20.657  21.713  1.00  0.00     0.001 C 
HETATM    5  C   LIG     1      23.405  21.146  23.137  1.00  0.00     0.007 C 
HETATM    6  C   LIG     1      24.438  22.266  22.853  1.00  0.00     0.018 C 
HETATM    7  C   LIG     1      23.054  21.964  20.884  1.00  0.00    -0.029 C 
HETATM    8  C   LIG     1      22.858  21.737  19.353  1.00  0.00     0.016 C 
HETATM    9  C   LIG     1      21.984  23.011  21.315  1.00  0.00     0.016 C 
HETATM   10  C   LIG     1      24.504  22.282  21.308  1.00  0.00     0.024 C 
HETATM   11  C   LIG     1      25.132  23.545  20.704  1.00  0.00     0.024 C 
ENDROOT
TORSDOF 0
ENDMDL
MODEL 12
REMARK VINA RESULT:      -3.7     15.963     17.788
REMARK  0 active torsions:
REMARK  status: ('A' for Active; 'I' for Inactive)
ROOT
HETATM    1  O   LIG     1      25.211  23.239  18.939  1.00  0.00    -0.297 OA
HETATM    2  C   LIG     1      24.462  22.423  19.456  1.00  0.00     0.136 C 
HETATM    3  C   LIG     1      23.354  21.702  18.755  1.00  0.00     0.084 C 
HETATM    4  C   LIG     1      22.898  20.756  19.901  1.00  0.00     0.001 C 
HETATM    5  C   LIG     1      24.015  19.687  20.056  1.00  0.00     0.007 C 
HETATM    6  C   LIG     1      25.169  20.482  20.717  1.00  0.00     0.018 C 
HETATM    7  C   LIG     1      23.075  21.619  21.174  1.00  0.00    -0.029 C 
HETATM    8  C   LIG     1      22.167  22.888  21.200  1.00  0.00     0.016 C 
HETATM    9  C   LIG     1      22.797  20.851  22.501  1.00  0.00     0.016 C 
HETATM   10  C   LIG     1      24.563  21.897  20.867  1.00  0.00     0.024 C 
HETATM   11  C   LIG     1      25.304  22.814  21.848  1.00  0.00     0.024 C 
ENDROOT
TORSDOF 0
ENDMDL
MODEL 13
REMARK VINA RESULT:      -3.7     19.628     20.836
REMARK  0 active torsions:
REMARK  status: ('A' for Active; 'I' for Inactive)
ROOT
HETATM    1  O   LIG     1      23.318  20.228  35.368  1.00  0.00    -0.297 OA
HETATM    2  C   LIG     1      22.467  21.075  35.595  1.00  0.00     0.136 C 
HETATM    3  C   LIG     1      22.258  21.757  36.912  1.00  0.00     0.084 C 
HETATM    4  C   LIG     1      21.154  22.772  36.501  1.00  0.00     0.001 C 
HETATM    5  C   LIG     1      21.851  23.844  35.620  1.00  0.00     0.007 C 
HETATM    6  C   LIG     1      22.117  23.086  34.295  1.00  0.00     0.018 C 
HETATM    7  C   LIG     1      20.305  21.986  35.473  1.00  0.00    -0.029 C 
HETATM    8  C   LIG     1      19.609  20.724  36.071  1.00  0.00     0.016 C 
HETATM    9  C   LIG     1      19.182  22.833  34.803  1.00  0.00     0.016 C 
HETATM   10  C   LIG     1      21.530  21.684  34.583  1.00  0.00     0.024 C 
HETATM   11  C   LIG     1      21.276  20.826  33.337  1.00  0.00     0.024 C 
ENDROOT
TORSDOF 0
ENDMDL
MODEL 14
REMARK VINA RESULT:      -3.6     19.222     20.860
REMARK  0 active torsions:
REMARK  status: ('A' for Active; 'I' for Inactive)
ROOT
HETATM    1  O   LIG     1      19.000  20.215  34.988  1.00  0.00    -0.297 OA
HETATM    2  C   LIG     1      20.027  20.804  35.292  1.00  0.00     0.136 C 
HETATM    3  C   LIG     1      20.757  20.653  36.591  1.00  0.00     0.084 C 
HETATM    4  C   LIG     1      21.996  21.542  36.292  1.00  0.00     0.001 C 
HETATM    5  C   LIG     1      22.863  20.755  35.271  1.00  0.00     0.007 C 
HETATM    6  C   LIG     1      22.046  20.871  33.960  1.00  0.00     0.018 C 
HETATM    7  C   LIG     1      21.418  22.693  35.433  1.00  0.00    -0.029 C 
HETATM    8  C   LIG     1      20.364  23.564  36.184  1.00  0.00     0.016 C 
HETATM    9  C   LIG     1      22.496  23.677  34.889  1.00  0.00     0.016 C 
HETATM   10  C   LIG     1      20.826  21.716  34.394  1.00  0.00     0.024 C 
HETATM   11  C   LIG     1      20.034  22.343  33.240  1.00  0.00     0.024 C 
ENDROOT
TORSDOF 0
ENDMDL
MODEL 15
REMARK VINA RESULT:      -3.6     16.284     17.846
REMARK  0 active torsions:
REMARK  status: ('A' for Active; 'I' for Inactive)
ROOT
HETATM    1  O   LIG     1      25.724  19.591  20.785  1.00  0.00    -0.297 OA
HETATM    2  C   LIG     1      25.145  20.615  21.116  1.00  0.00     0.136 C 
HETATM    3  C   LIG     1      25.547  21.505  22.252  1.00  0.00     0.084 C 
HETATM    4  C   LIG     1      24.515  22.651  22.056  1.00  0.00     0.001 C 
HETATM    5  C   LIG     1      24.958  23.426  20.785  1.00  0.00     0.007 C 
HETATM    6  C   LIG     1      24.594  22.450  19.638  1.00  0.00     0.018 C 
HETATM    7  C   LIG     1      23.241  21.912  21.578  1.00  0.00    -0.029 C 
HETATM    8  C   LIG     1      22.666  20.913  22.629  1.00  0.00     0.016 C 
HETATM    9  C   LIG     1      22.070  22.863  21.187  1.00  0.00     0.016 C 
HETATM   10  C   LIG     1      23.981  21.249  20.396  1.00  0.00     0.024 C 
HETATM   11  C   LIG     1      23.159  20.291  19.525  1.00  0.00     0.024 C 
ENDROOT
TORSDOF 0
ENDMDL
MODEL 16
REMARK VINA RESULT:      -3.6     16.360     17.965
REMARK  0 active torsions:
REMARK  status: ('A' for Active; 'I' for Inactive)
ROOT
HETATM    1  O   LIG     1      25.763  19.541  20.722  1.00  0.00    -0.297 OA
HETATM    2  C   LIG     1      25.096  20.543  20.508  1.00  0.00     0.136 C 
HETATM    3  C   LIG     1      25.601  21.791  19.851  1.00  0.00     0.084 C 
HETATM    4  C   LIG     1      24.271  22.591  19.769  1.00  0.00     0.001 C 
HETATM    5  C   LIG     1      23.411  21.902  18.674  1.00  0.00     0.007 C 
HETATM    6  C   LIG     1      22.966  20.585  19.359  1.00  0.00     0.018 C 
HETATM    7  C   LIG     1      23.534  22.204  21.074  1.00  0.00    -0.029 C 
HETATM    8  C   LIG     1      24.286  22.641  22.369  1.00  0.00     0.016 C 
HETATM    9  C   LIG     1      22.094  22.788  21.183  1.00  0.00     0.016 C 
HETATM   10  C   LIG     1      23.617  20.695  20.758  1.00  0.00     0.024 C 
HETATM   11  C   LIG     1      23.038  19.743  21.813  1.00  0.00     0.024 C 
ENDROOT
TORSDOF 0
ENDMDL
MODEL 17
REMARK VINA RESULT:      -3.5      1.160      2.061
REMARK  0 active torsions:
REMARK  status: ('A' for Active; 'I' for Inactive)
ROOT
HETATM    1  O   LIG     1      15.704  36.007  20.732  1.00  0.00    -0.297 OA
HETATM    2  C   LIG     1      16.457  36.566  21.516  1.00  0.00     0.136 C 
HETATM    3  C   LIG     1      17.952  36.553  21.435  1.00  0.00     0.084 C 
HETATM    4  C   LIG     1      18.280  37.520  22.607  1.00  0.00     0.001 C 
HETATM    5  C   LIG     1      17.882  38.942  22.124  1.00  0.00     0.007 C 
HETATM    6  C   LIG     1      16.333  38.898  22.151  1.00  0.00     0.018 C 
HETATM    7  C   LIG     1      17.189  37.199  23.657  1.00  0.00    -0.029 C 
HETATM    8  C   LIG     1      17.255  35.738  24.199  1.00  0.00     0.016 C 
HETATM    9  C   LIG     1      17.219  38.133  24.903  1.00  0.00     0.016 C 
HETATM   10  C   LIG     1      16.044  37.464  22.655  1.00  0.00     0.024 C 
HETATM   11  C   LIG     1      14.618  37.240  23.171  1.00  0.00     0.024 C 
ENDROOT
TORSDOF 0
ENDMDL
MODEL 18
REMARK VINA RESULT:      -3.5     17.122     18.404
REMARK  0 active torsions:
REMARK  status: ('A' for Active; 'I' for Inactive)
ROOT
HETATM    1  O   LIG     1      25.588  31.499  35.799  1.00  0.00    -0.297 OA
HETATM    2  C   LIG     1      26.436  30.684  35.467  1.00  0.00     0.136 C 
HETATM    3  C   LIG     1      26.189  29.483  34.609  1.00  0.00     0.084 C 
HETATM    4  C   LIG     1      27.649  28.966  34.468  1.00  0.00     0.001 C 
HETATM    5  C   LIG     1      28.379  29.965  33.529  1.00  0.00     0.007 C 
HETATM    6  C   LIG     1      28.554  31.218  34.423  1.00  0.00     0.018 C 
HETATM    7  C   LIG     1      28.277  29.275  35.848  1.00  0.00    -0.029 C 
HETATM    8  C   LIG     1      27.601  28.509  37.028  1.00  0.00     0.016 C 
HETATM    9  C   LIG     1      29.800  28.958  35.933  1.00  0.00     0.016 C 
HETATM   10  C   LIG     1      27.914  30.773  35.759  1.00  0.00     0.024 C 
HETATM   11  C   LIG     1      28.283  31.639  36.970  1.00  0.00     0.024 C 
ENDROOT
TORSDOF 0
ENDMDL
MODEL 19
REMARK VINA RESULT:      -3.5     16.891     18.508
REMARK  0 active torsions:
REMARK  status: ('A' for Active; 'I' for Inactive)
ROOT
HETATM    1  O   LIG     1      25.961  29.177  34.197  1.00  0.00    -0.297 OA
HETATM    2  C   LIG     1      26.669  29.459  35.152  1.00  0.00     0.136 C 
HETATM    3  C   LIG     1      27.584  28.508  35.859  1.00  0.00     0.084 C 
HETATM    4  C   LIG     1      28.261  29.495  36.851  1.00  0.00     0.001 C 
HETATM    5  C   LIG     1      29.212  30.385  36.004  1.00  0.00     0.007 C 
HETATM    6  C   LIG     1      28.232  31.305  35.234  1.00  0.00     0.018 C 
HETATM    7  C   LIG     1      27.120  30.474  37.223  1.00  0.00    -0.029 C 
HETATM    8  C   LIG     1      25.924  29.791  37.955  1.00  0.00     0.016 C 
HETATM    9  C   LIG     1      27.574  31.657  38.129  1.00  0.00     0.016 C 
HETATM   10  C   LIG     1      26.851  30.834  35.745  1.00  0.00     0.024 C 
HETATM   11  C   LIG     1      25.699  31.811  35.479  1.00  0.00     0.024 C 
ENDROOT
TORSDOF 0
ENDMDL
MODEL 20
REMARK VINA RESULT:      -3.4     17.275     18.505
REMARK  0 active torsions:
REMARK  status: ('A' for Active; 'I' for Inactive)
ROOT
HETATM    1  O   LIG     1      29.160  27.417  34.916  1.00  0.00    -0.297 OA
HETATM    2  C   LIG     1      28.745  28.515  35.254  1.00  0.00     0.136 C 
HETATM    3  C   LIG     1      29.405  29.419  36.249  1.00  0.00     0.084 C 
HETATM    4  C   LIG     1      28.474  30.658  36.125  1.00  0.00     0.001 C 
HETATM    5  C   LIG     1      28.789  31.307  34.749  1.00  0.00     0.007 C 
HETATM    6  C   LIG     1      28.157  30.313  33.743  1.00  0.00     0.018 C 
HETATM    7  C   LIG     1      27.074  30.038  35.897  1.00  0.00    -0.029 C 
HETATM    8  C   LIG     1      26.573  29.170  37.092  1.00  0.00     0.016 C 
HETATM    9  C   LIG     1      25.958  31.087  35.616  1.00  0.00     0.016 C 
HETATM   10  C   LIG     1      27.552  29.231  34.670  1.00  0.00     0.024 C 
HETATM   11  C   LIG     1      26.514  28.320  34.003  1.00  0.00     0.024 C 
ENDROOT
TORSDOF 0
ENDMDL
