REMARK  2 active torsions:
REMARK  status: ('A' for Active; 'I' for Inactive)
REMARK    1  A    between atoms: C_6  and  C_10 
REMARK    2  A    between atoms: C_6  and  C_7 
ROOT
HETATM    1  O   LIG     1       3.328  -2.388   0.872  1.00  0.00    -0.247 OA
HETATM    2  C   LIG     1       2.450  -1.529   0.593  1.00  0.00     0.329 C 
HETATM    3  N   LIG     1       2.096  -1.284  -0.765  1.00  0.00    -0.278 N 
HETATM    4  N   LIG     1       1.833  -0.773   1.631  1.00  0.00    -0.278 N 
HETATM    5  C   LIG     1       0.805   0.175   1.330  1.00  0.00     0.244 C 
HETATM    6  C   LIG     1       0.093   0.161  -0.026  1.00  0.00     0.125 C 
HETATM    7  C   LIG     1       1.065  -0.347  -1.093  1.00  0.00     0.244 C 
HETATM    8  O   LIG     1       0.927   0.004  -2.297  1.00  0.00    -0.272 OA
HETATM    9  O   LIG     1       0.434   0.973   2.234  1.00  0.00    -0.272 OA
HETATM   10  H   LIG     1       2.631  -1.753  -1.531  1.00  0.00     0.173 HD
HETATM   11  H   LIG     1       2.176  -0.870   2.613  1.00  0.00     0.173 HD
ENDROOT
BRANCH   6  12
HETATM   12  C   LIG     1      -0.384   1.610  -0.388  1.00  0.00     0.025 C 
HETATM   13  C   LIG     1       0.752   2.639  -0.485  1.00  0.00     0.007 C 
ENDBRANCH   6  12
BRANCH   6  14
HETATM   14  C   LIG     1      -1.117  -0.851   0.062  1.00  0.00     0.004 C 
HETATM   15  C   LIG     1      -2.137  -0.521   1.172  1.00  0.00     0.011 C 
HETATM   16  C   LIG     1      -1.877  -1.040  -1.267  1.00  0.00     0.011 C 
ENDBRANCH   6  14
TORSDOF 2
