MODEL 1
REMARK VINA RESULT:      -6.2      0.000      0.000
REMARK  2 active torsions:
REMARK  status: ('A' for Active; 'I' for Inactive)
REMARK    1  A    between atoms: C_6  and  C_10 
REMARK    2  A    between atoms: C_6  and  C_7 
ROOT
HETATM    1  O   LIG     1      17.549  37.453  26.247  1.00  0.00    -0.247 OA
HETATM    2  C   LIG     1      17.207  37.251  25.051  1.00  0.00     0.329 C 
HETATM    3  N   LIG     1      16.484  38.248  24.336  1.00  0.00    -0.278 N 
HETATM    4  N   LIG     1      17.511  36.010  24.420  1.00  0.00    -0.278 N 
HETATM    5  C   LIG     1      17.166  35.785  23.050  1.00  0.00     0.244 C 
HETATM    6  C   LIG     1      16.796  36.951  22.130  1.00  0.00     0.125 C 
HETATM    7  C   LIG     1      16.134  38.052  22.962  1.00  0.00     0.244 C 
HETATM    8  O   LIG     1      15.316  38.849  22.426  1.00  0.00    -0.272 OA
HETATM    9  O   LIG     1      17.253  34.614  22.589  1.00  0.00    -0.272 OA
HETATM   10  H   LIG     1      16.160  39.108  24.834  1.00  0.00     0.173 HD
HETATM   11  H   LIG     1      17.936  35.237  24.980  1.00  0.00     0.173 HD
ENDROOT
BRANCH   6  12
HETATM   12  C   LIG     1      15.805  36.456  21.020  1.00  0.00     0.025 C 
HETATM   13  C   LIG     1      14.580  35.704  21.563  1.00  0.00     0.007 C 
ENDBRANCH   6  12
BRANCH   6  14
HETATM   14  C   LIG     1      18.127  37.533  21.510  1.00  0.00     0.004 C 
HETATM   15  C   LIG     1      18.498  36.938  20.136  1.00  0.00     0.011 C 
HETATM   16  C   LIG     1      18.152  39.072  21.404  1.00  0.00     0.011 C 
ENDBRANCH   6  14
TORSDOF 2
ENDMDL
MODEL 2
REMARK VINA RESULT:      -5.3      2.208      3.910
REMARK  2 active torsions:
REMARK  status: ('A' for Active; 'I' for Inactive)
REMARK    1  A    between atoms: C_6  and  C_10 
REMARK    2  A    between atoms: C_6  and  C_7 
ROOT
HETATM    1  O   LIG     1      17.987  36.459  18.873  1.00  0.00    -0.247 OA
HETATM    2  C   LIG     1      17.916  36.641  20.117  1.00  0.00     0.329 C 
HETATM    3  N   LIG     1      18.354  37.872  20.686  1.00  0.00    -0.278 N 
HETATM    4  N   LIG     1      17.431  35.604  20.965  1.00  0.00    -0.278 N 
HETATM    5  C   LIG     1      17.306  35.814  22.375  1.00  0.00     0.244 C 
HETATM    6  C   LIG     1      17.342  37.225  22.967  1.00  0.00     0.125 C 
HETATM    7  C   LIG     1      18.232  38.110  22.092  1.00  0.00     0.244 C 
HETATM    8  O   LIG     1      18.821  39.109  22.589  1.00  0.00    -0.272 OA
HETATM    9  O   LIG     1      17.081  34.819  23.117  1.00  0.00    -0.272 OA
HETATM   10  H   LIG     1      18.818  38.585  20.079  1.00  0.00     0.173 HD
HETATM   11  H   LIG     1      17.221  34.664  20.561  1.00  0.00     0.173 HD
ENDROOT
BRANCH   6  12
HETATM   12  C   LIG     1      17.915  37.172  24.426  1.00  0.00     0.025 C 
HETATM   13  C   LIG     1      17.166  38.063  25.428  1.00  0.00     0.007 C 
ENDBRANCH   6  12
BRANCH   6  14
HETATM   14  C   LIG     1      15.876  37.813  22.933  1.00  0.00     0.004 C 
HETATM   15  C   LIG     1      15.778  39.232  22.336  1.00  0.00     0.011 C 
HETATM   16  C   LIG     1      14.851  36.905  22.222  1.00  0.00     0.011 C 
ENDBRANCH   6  14
TORSDOF 2
ENDMDL
MODEL 3
REMARK VINA RESULT:      -5.0      1.676      2.084
REMARK  2 active torsions:
REMARK  status: ('A' for Active; 'I' for Inactive)
REMARK    1  A    between atoms: C_6  and  C_10 
REMARK    2  A    between atoms: C_6  and  C_7 
ROOT
HETATM    1  O   LIG     1      18.498  34.609  26.376  1.00  0.00    -0.247 OA
HETATM    2  C   LIG     1      17.866  35.309  25.541  1.00  0.00     0.329 C 
HETATM    3  N   LIG     1      17.698  36.706  25.763  1.00  0.00    -0.278 N 
HETATM    4  N   LIG     1      17.286  34.701  24.390  1.00  0.00    -0.278 N 
HETATM    5  C   LIG     1      16.603  35.493  23.414  1.00  0.00     0.244 C 
HETATM    6  C   LIG     1      16.770  37.015  23.377  1.00  0.00     0.125 C 
HETATM    7  C   LIG     1      17.025  37.522  24.798  1.00  0.00     0.244 C 
HETATM    8  O   LIG     1      16.704  38.699  25.120  1.00  0.00    -0.272 OA
HETATM    9  O   LIG     1      15.923  34.907  22.528  1.00  0.00    -0.272 OA
HETATM   10  H   LIG     1      18.020  37.129  26.663  1.00  0.00     0.173 HD
HETATM   11  H   LIG     1      17.310  33.662  24.289  1.00  0.00     0.173 HD
ENDROOT
BRANCH   6  12
HETATM   12  C   LIG     1      15.469  37.676  22.803  1.00  0.00     0.025 C 
HETATM   13  C   LIG     1      15.647  39.139  22.371  1.00  0.00     0.007 C 
ENDBRANCH   6  12
BRANCH   6  14
HETATM   14  C   LIG     1      18.038  37.351  22.497  1.00  0.00     0.004 C 
HETATM   15  C   LIG     1      17.892  36.974  21.008  1.00  0.00     0.011 C 
HETATM   16  C   LIG     1      18.498  38.821  22.592  1.00  0.00     0.011 C 
ENDBRANCH   6  14
TORSDOF 2
ENDMDL
MODEL 4
REMARK VINA RESULT:      -4.7      1.624      3.001
REMARK  2 active torsions:
REMARK  status: ('A' for Active; 'I' for Inactive)
REMARK    1  A    between atoms: C_6  and  C_10 
REMARK    2  A    between atoms: C_6  and  C_7 
ROOT
HETATM    1  O   LIG     1      17.537  37.375  26.530  1.00  0.00    -0.247 OA
HETATM    2  C   LIG     1      17.549  37.735  25.323  1.00  0.00     0.329 C 
HETATM    3  N   LIG     1      18.765  38.165  24.718  1.00  0.00    -0.278 N 
HETATM    4  N   LIG     1      16.341  37.748  24.568  1.00  0.00    -0.278 N 
HETATM    5  C   LIG     1      16.350  38.114  23.186  1.00  0.00     0.244 C 
HETATM    6  C   LIG     1      17.658  38.157  22.390  1.00  0.00     0.125 C 
HETATM    7  C   LIG     1      18.803  38.529  23.334  1.00  0.00     0.244 C 
HETATM    8  O   LIG     1      19.832  39.106  22.888  1.00  0.00    -0.272 OA
HETATM    9  O   LIG     1      15.247  38.322  22.608  1.00  0.00    -0.272 OA
HETATM   10  H   LIG     1      19.626  38.268  25.303  1.00  0.00     0.173 HD
HETATM   11  H   LIG     1      15.434  37.546  25.044  1.00  0.00     0.173 HD
ENDROOT
BRANCH   6  12
HETATM   12  C   LIG     1      17.546  39.221  21.244  1.00  0.00     0.025 C 
HETATM   13  C   LIG     1      18.867  39.498  20.513  1.00  0.00     0.007 C 
ENDBRANCH   6  12
BRANCH   6  14
HETATM   14  C   LIG     1      17.937  36.709  21.821  1.00  0.00     0.004 C 
HETATM   15  C   LIG     1      16.949  35.634  22.320  1.00  0.00     0.011 C 
HETATM   16  C   LIG     1      18.007  36.640  20.282  1.00  0.00     0.011 C 
ENDBRANCH   6  14
TORSDOF 2
ENDMDL
MODEL 5
REMARK VINA RESULT:      -4.7      2.192      3.586
REMARK  2 active torsions:
REMARK  status: ('A' for Active; 'I' for Inactive)
REMARK    1  A    between atoms: C_6  and  C_10 
REMARK    2  A    between atoms: C_6  and  C_7 
ROOT
HETATM    1  O   LIG     1      19.062  39.981  20.533  1.00  0.00    -0.247 OA
HETATM    2  C   LIG     1      18.592  38.930  21.043  1.00  0.00     0.329 C 
HETATM    3  N   LIG     1      18.348  38.864  22.445  1.00  0.00    -0.278 N 
HETATM    4  N   LIG     1      18.334  37.791  20.227  1.00  0.00    -0.278 N 
HETATM    5  C   LIG     1      17.760  36.607  20.788  1.00  0.00     0.244 C 
HETATM    6  C   LIG     1      17.086  36.634  22.163  1.00  0.00     0.125 C 
HETATM    7  C   LIG     1      17.767  37.694  23.031  1.00  0.00     0.244 C 
HETATM    8  O   LIG     1      17.766  37.583  24.287  1.00  0.00    -0.272 OA
HETATM    9  O   LIG     1      17.744  35.555  20.093  1.00  0.00    -0.272 OA
HETATM   10  H   LIG     1      18.646  39.655  23.059  1.00  0.00     0.173 HD
HETATM   11  H   LIG     1      18.622  37.801  19.223  1.00  0.00     0.173 HD
ENDROOT
BRANCH   6  12
HETATM   12  C   LIG     1      17.215  35.227  22.843  1.00  0.00     0.025 C 
HETATM   13  C   LIG     1      17.144  35.262  24.376  1.00  0.00     0.007 C 
ENDBRANCH   6  12
BRANCH   6  14
HETATM   14  C   LIG     1      15.576  37.053  21.964  1.00  0.00     0.004 C 
HETATM   15  C   LIG     1      14.647  35.893  21.549  1.00  0.00     0.011 C 
HETATM   16  C   LIG     1      14.957  37.771  23.181  1.00  0.00     0.011 C 
ENDBRANCH   6  14
TORSDOF 2
ENDMDL
MODEL 6
REMARK VINA RESULT:      -4.3      1.572      3.641
REMARK  2 active torsions:
REMARK  status: ('A' for Active; 'I' for Inactive)
REMARK    1  A    between atoms: C_6  and  C_10 
REMARK    2  A    between atoms: C_6  and  C_7 
ROOT
HETATM    1  O   LIG     1      14.712  34.533  21.485  1.00  0.00    -0.247 OA
HETATM    2  C   LIG     1      15.360  35.432  22.084  1.00  0.00     0.329 C 
HETATM    3  N   LIG     1      16.439  35.081  22.945  1.00  0.00    -0.278 N 
HETATM    4  N   LIG     1      14.994  36.800  21.933  1.00  0.00    -0.278 N 
HETATM    5  C   LIG     1      15.748  37.832  22.575  1.00  0.00     0.244 C 
HETATM    6  C   LIG     1      17.145  37.553  23.137  1.00  0.00     0.125 C 
HETATM    7  C   LIG     1      17.216  36.094  23.593  1.00  0.00     0.244 C 
HETATM    8  O   LIG     1      18.015  35.752  24.507  1.00  0.00    -0.272 OA
HETATM    9  O   LIG     1      15.277  39.002  22.596  1.00  0.00    -0.272 OA
HETATM   10  H   LIG     1      16.632  34.073  23.148  1.00  0.00     0.173 HD
HETATM   11  H   LIG     1      14.132  37.047  21.396  1.00  0.00     0.173 HD
ENDROOT
BRANCH   6  12
HETATM   12  C   LIG     1      17.426  38.503  24.352  1.00  0.00     0.025 C 
HETATM   13  C   LIG     1      17.235  37.842  25.724  1.00  0.00     0.007 C 
ENDBRANCH   6  12
BRANCH   6  14
HETATM   14  C   LIG     1      18.195  37.758  21.975  1.00  0.00     0.004 C 
HETATM   15  C   LIG     1      17.870  36.977  20.684  1.00  0.00     0.011 C 
HETATM   16  C   LIG     1      18.447  39.235  21.608  1.00  0.00     0.011 C 
ENDBRANCH   6  14
TORSDOF 2
ENDMDL
MODEL 7
REMARK VINA RESULT:      -4.0      1.355      3.158
REMARK  2 active torsions:
REMARK  status: ('A' for Active; 'I' for Inactive)
REMARK    1  A    between atoms: C_6  and  C_10 
REMARK    2  A    between atoms: C_6  and  C_7 
ROOT
HETATM    1  O   LIG     1      17.176  38.921  26.067  1.00  0.00    -0.247 OA
HETATM    2  C   LIG     1      17.226  38.180  25.050  1.00  0.00     0.329 C 
HETATM    3  N   LIG     1      17.188  36.763  25.196  1.00  0.00    -0.278 N 
HETATM    4  N   LIG     1      17.359  38.752  23.753  1.00  0.00    -0.278 N 
HETATM    5  C   LIG     1      17.375  37.922  22.588  1.00  0.00     0.244 C 
HETATM    6  C   LIG     1      16.904  36.466  22.651  1.00  0.00     0.125 C 
HETATM    7  C   LIG     1      17.194  35.910  24.047  1.00  0.00     0.244 C 
HETATM    8  O   LIG     1      17.377  34.673  24.212  1.00  0.00    -0.272 OA
HETATM    9  O   LIG     1      17.706  38.436  21.484  1.00  0.00    -0.272 OA
HETATM   10  H   LIG     1      17.209  36.342  26.153  1.00  0.00     0.173 HD
HETATM   11  H   LIG     1      17.505  39.782  23.656  1.00  0.00     0.173 HD
ENDROOT
BRANCH   6  12
HETATM   12  C   LIG     1      17.662  35.618  21.573  1.00  0.00     0.025 C 
HETATM   13  C   LIG     1      18.194  36.438  20.388  1.00  0.00     0.007 C 
ENDBRANCH   6  12
BRANCH   6  14
HETATM   14  C   LIG     1      15.341  36.443  22.425  1.00  0.00     0.004 C 
HETATM   15  C   LIG     1      14.670  37.831  22.503  1.00  0.00     0.011 C 
HETATM   16  C   LIG     1      14.905  35.757  21.114  1.00  0.00     0.011 C 
ENDBRANCH   6  14
TORSDOF 2
ENDMDL
MODEL 8
REMARK VINA RESULT:      -4.0      5.827      7.001
REMARK  2 active torsions:
REMARK  status: ('A' for Active; 'I' for Inactive)
REMARK    1  A    between atoms: C_6  and  C_10 
REMARK    2  A    between atoms: C_6  and  C_7 
ROOT
HETATM    1  O   LIG     1      16.568  34.741  20.305  1.00  0.00    -0.247 OA
HETATM    2  C   LIG     1      15.851  34.166  19.444  1.00  0.00     0.329 C 
HETATM    3  N   LIG     1      15.353  34.895  18.326  1.00  0.00    -0.278 N 
HETATM    4  N   LIG     1      15.503  32.794  19.604  1.00  0.00    -0.278 N 
HETATM    5  C   LIG     1      14.724  32.119  18.612  1.00  0.00     0.244 C 
HETATM    6  C   LIG     1      14.541  32.716  17.213  1.00  0.00     0.125 C 
HETATM    7  C   LIG     1      14.578  34.243  17.315  1.00  0.00     0.244 C 
HETATM    8  O   LIG     1      13.976  34.951  16.463  1.00  0.00    -0.272 OA
HETATM    9  O   LIG     1      14.257  30.979  18.882  1.00  0.00    -0.272 OA
HETATM   10  H   LIG     1      15.510  35.927  18.272  1.00  0.00     0.173 HD
HETATM   11  H   LIG     1      15.770  32.293  20.481  1.00  0.00     0.173 HD
ENDROOT
BRANCH   6  12
HETATM   12  C   LIG     1      13.166  32.257  16.618  1.00  0.00     0.025 C 
HETATM   13  C   LIG     1      13.062  30.744  16.373  1.00  0.00     0.007 C 
ENDBRANCH   6  12
BRANCH   6  14
HETATM   14  C   LIG     1      15.755  32.252  16.316  1.00  0.00     0.004 C 
HETATM   15  C   LIG     1      15.350  31.383  15.106  1.00  0.00     0.011 C 
HETATM   16  C   LIG     1      16.648  33.407  15.818  1.00  0.00     0.011 C 
ENDBRANCH   6  14
TORSDOF 2
ENDMDL
MODEL 9
REMARK VINA RESULT:      -3.7     16.078     17.624
REMARK  2 active torsions:
REMARK  status: ('A' for Active; 'I' for Inactive)
REMARK    1  A    between atoms: C_6  and  C_10 
REMARK    2  A    between atoms: C_6  and  C_7 
ROOT
HETATM    1  O   LIG     1      27.104  23.609  18.150  1.00  0.00    -0.247 OA
HETATM    2  C   LIG     1      26.235  22.903  18.726  1.00  0.00     0.329 C 
HETATM    3  N   LIG     1      26.577  22.152  19.887  1.00  0.00    -0.278 N 
HETATM    4  N   LIG     1      24.914  22.822  18.197  1.00  0.00    -0.278 N 
HETATM    5  C   LIG     1      23.907  22.057  18.866  1.00  0.00     0.244 C 
HETATM    6  C   LIG     1      24.095  21.603  20.316  1.00  0.00     0.125 C 
HETATM    7  C   LIG     1      25.587  21.385  20.579  1.00  0.00     0.244 C 
HETATM    8  O   LIG     1      25.963  20.568  21.464  1.00  0.00    -0.272 OA
HETATM    9  O   LIG     1      22.819  21.833  18.266  1.00  0.00    -0.272 OA
HETATM   10  H   LIG     1      27.573  22.118  20.205  1.00  0.00     0.173 HD
HETATM   11  H   LIG     1      24.696  23.279  17.283  1.00  0.00     0.173 HD
ENDROOT
BRANCH   6  12
HETATM   12  C   LIG     1      23.312  20.266  20.558  1.00  0.00     0.025 C 
HETATM   13  C   LIG     1      23.710  19.125  19.610  1.00  0.00     0.007 C 
ENDBRANCH   6  12
BRANCH   6  14
HETATM   14  C   LIG     1      23.590  22.760  21.266  1.00  0.00     0.004 C 
HETATM   15  C   LIG     1      22.054  22.883  21.349  1.00  0.00     0.011 C 
HETATM   16  C   LIG     1      24.159  22.691  22.698  1.00  0.00     0.011 C 
ENDBRANCH   6  14
TORSDOF 2
ENDMDL
MODEL 10
REMARK VINA RESULT:      -3.7     16.749     18.367
REMARK  2 active torsions:
REMARK  status: ('A' for Active; 'I' for Inactive)
REMARK    1  A    between atoms: C_6  and  C_10 
REMARK    2  A    between atoms: C_6  and  C_7 
ROOT
HETATM    1  O   LIG     1      25.560  31.644  35.722  1.00  0.00    -0.247 OA
HETATM    2  C   LIG     1      26.291  30.645  35.487  1.00  0.00     0.329 C 
HETATM    3  N   LIG     1      26.351  29.569  36.419  1.00  0.00    -0.278 N 
HETATM    4  N   LIG     1      27.088  30.603  34.308  1.00  0.00    -0.278 N 
HETATM    5  C   LIG     1      27.890  29.456  34.010  1.00  0.00     0.244 C 
HETATM    6  C   LIG     1      27.659  28.125  34.731  1.00  0.00     0.125 C 
HETATM    7  C   LIG     1      27.139  28.407  36.142  1.00  0.00     0.244 C 
HETATM    8  O   LIG     1      27.343  27.578  37.072  1.00  0.00    -0.272 OA
HETATM    9  O   LIG     1      28.740  29.536  33.081  1.00  0.00    -0.272 OA
HETATM   10  H   LIG     1      25.859  29.653  37.338  1.00  0.00     0.173 HD
HETATM   11  H   LIG     1      27.133  31.441  33.685  1.00  0.00     0.173 HD
ENDROOT
BRANCH   6  12
HETATM   12  C   LIG     1      29.005  27.325  34.810  1.00  0.00     0.025 C 
HETATM   13  C   LIG     1      30.126  28.056  35.562  1.00  0.00     0.007 C 
ENDBRANCH   6  12
BRANCH   6  14
HETATM   14  C   LIG     1      26.545  27.325  33.945  1.00  0.00     0.004 C 
HETATM   15  C   LIG     1      26.620  27.480  32.412  1.00  0.00     0.011 C 
HETATM   16  C   LIG     1      26.491  25.822  34.288  1.00  0.00     0.011 C 
ENDBRANCH   6  14
TORSDOF 2
ENDMDL
MODEL 11
REMARK VINA RESULT:      -3.6     18.651     20.207
REMARK  2 active torsions:
REMARK  status: ('A' for Active; 'I' for Inactive)
REMARK    1  A    between atoms: C_6  and  C_10 
REMARK    2  A    between atoms: C_6  and  C_7 
ROOT
HETATM    1  O   LIG     1      20.896  19.088  31.661  1.00  0.00    -0.247 OA
HETATM    2  C   LIG     1      21.065  20.056  32.448  1.00  0.00     0.329 C 
HETATM    3  N   LIG     1      20.079  21.081  32.542  1.00  0.00    -0.278 N 
HETATM    4  N   LIG     1      22.258  20.151  33.221  1.00  0.00    -0.278 N 
HETATM    5  C   LIG     1      22.442  21.224  34.149  1.00  0.00     0.244 C 
HETATM    6  C   LIG     1      21.259  22.085  34.603  1.00  0.00     0.125 C 
HETATM    7  C   LIG     1      20.235  22.161  33.468  1.00  0.00     0.244 C 
HETATM    8  O   LIG     1      19.462  23.154  33.375  1.00  0.00    -0.272 OA
HETATM    9  O   LIG     1      23.584  21.398  34.655  1.00  0.00    -0.272 OA
HETATM   10  H   LIG     1      19.262  21.072  31.890  1.00  0.00     0.173 HD
HETATM   11  H   LIG     1      23.029  19.464  33.065  1.00  0.00     0.173 HD
ENDROOT
BRANCH   6  12
HETATM   12  C   LIG     1      21.760  23.526  34.963  1.00  0.00     0.025 C 
HETATM   13  C   LIG     1      21.380  23.987  36.378  1.00  0.00     0.007 C 
ENDBRANCH   6  12
BRANCH   6  14
HETATM   14  C   LIG     1      20.576  21.374  35.838  1.00  0.00     0.004 C 
HETATM   15  C   LIG     1      19.214  20.722  35.518  1.00  0.00     0.011 C 
HETATM   16  C   LIG     1      21.471  20.330  36.537  1.00  0.00     0.011 C 
ENDBRANCH   6  14
TORSDOF 2
ENDMDL
MODEL 12
REMARK VINA RESULT:      -3.5     16.290     17.690
REMARK  2 active torsions:
REMARK  status: ('A' for Active; 'I' for Inactive)
REMARK    1  A    between atoms: C_6  and  C_10 
REMARK    2  A    between atoms: C_6  and  C_7 
ROOT
HETATM    1  O   LIG     1      22.877  18.279  20.837  1.00  0.00    -0.247 OA
HETATM    2  C   LIG     1      23.465  19.358  20.560  1.00  0.00     0.329 C 
HETATM    3  N   LIG     1      22.933  20.228  19.566  1.00  0.00    -0.278 N 
HETATM    4  N   LIG     1      24.685  19.695  21.214  1.00  0.00    -0.278 N 
HETATM    5  C   LIG     1      25.341  20.937  20.939  1.00  0.00     0.244 C 
HETATM    6  C   LIG     1      24.604  22.076  20.229  1.00  0.00     0.125 C 
HETATM    7  C   LIG     1      23.564  21.480  19.278  1.00  0.00     0.244 C 
HETATM    8  O   LIG     1      23.199  22.120  18.254  1.00  0.00    -0.272 OA
HETATM    9  O   LIG     1      26.515  21.109  21.367  1.00  0.00    -0.272 OA
HETATM   10  H   LIG     1      22.105  19.926  19.005  1.00  0.00     0.173 HD
HETATM   11  H   LIG     1      25.135  19.004  21.856  1.00  0.00     0.173 HD
ENDROOT
BRANCH   6  12
HETATM   12  C   LIG     1      25.627  22.946  19.421  1.00  0.00     0.025 C 
HETATM   13  C   LIG     1      25.828  24.362  19.980  1.00  0.00     0.007 C 
ENDBRANCH   6  12
BRANCH   6  14
HETATM   14  C   LIG     1      23.843  22.928  21.321  1.00  0.00     0.004 C 
HETATM   15  C   LIG     1      22.304  22.843  21.229  1.00  0.00     0.011 C 
HETATM   16  C   LIG     1      24.269  22.618  22.770  1.00  0.00     0.011 C 
ENDBRANCH   6  14
TORSDOF 2
ENDMDL
MODEL 13
REMARK VINA RESULT:      -3.5     16.221     17.770
REMARK  2 active torsions:
REMARK  status: ('A' for Active; 'I' for Inactive)
REMARK    1  A    between atoms: C_6  and  C_10 
REMARK    2  A    between atoms: C_6  and  C_7 
ROOT
HETATM    1  O   LIG     1      27.973  20.939  21.132  1.00  0.00    -0.247 OA
HETATM    2  C   LIG     1      26.799  21.123  20.713  1.00  0.00     0.329 C 
HETATM    3  N   LIG     1      25.743  20.272  21.151  1.00  0.00    -0.278 N 
HETATM    4  N   LIG     1      26.529  22.157  19.772  1.00  0.00    -0.278 N 
HETATM    5  C   LIG     1      25.193  22.401  19.321  1.00  0.00     0.244 C 
HETATM    6  C   LIG     1      23.990  21.825  20.073  1.00  0.00     0.125 C 
HETATM    7  C   LIG     1      24.397  20.500  20.722  1.00  0.00     0.244 C 
HETATM    8  O   LIG     1      23.531  19.612  20.949  1.00  0.00    -0.272 OA
HETATM    9  O   LIG     1      25.018  23.173  18.338  1.00  0.00    -0.272 OA
HETATM   10  H   LIG     1      25.962  19.443  21.748  1.00  0.00     0.173 HD
HETATM   11  H   LIG     1      27.321  22.703  19.364  1.00  0.00     0.173 HD
ENDROOT
BRANCH   6  12
HETATM   12  C   LIG     1      22.807  21.586  19.073  1.00  0.00     0.025 C 
HETATM   13  C   LIG     1      23.100  20.533  17.994  1.00  0.00     0.007 C 
ENDBRANCH   6  12
BRANCH   6  14
HETATM   14  C   LIG     1      23.594  22.836  21.221  1.00  0.00     0.004 C 
HETATM   15  C   LIG     1      22.074  23.040  21.386  1.00  0.00     0.011 C 
HETATM   16  C   LIG     1      24.200  22.493  22.598  1.00  0.00     0.011 C 
ENDBRANCH   6  14
TORSDOF 2
ENDMDL
MODEL 14
REMARK VINA RESULT:      -3.5     16.709     18.216
REMARK  2 active torsions:
REMARK  status: ('A' for Active; 'I' for Inactive)
REMARK    1  A    between atoms: C_6  and  C_10 
REMARK    2  A    between atoms: C_6  and  C_7 
ROOT
HETATM    1  O   LIG     1      27.266  19.033  19.662  1.00  0.00    -0.247 OA
HETATM    2  C   LIG     1      26.268  19.681  20.076  1.00  0.00     0.329 C 
HETATM    3  N   LIG     1      26.371  21.084  20.301  1.00  0.00    -0.278 N 
HETATM    4  N   LIG     1      25.043  19.009  20.354  1.00  0.00    -0.278 N 
HETATM    5  C   LIG     1      23.892  19.740  20.783  1.00  0.00     0.244 C 
HETATM    6  C   LIG     1      23.819  21.262  20.621  1.00  0.00     0.125 C 
HETATM    7  C   LIG     1      25.231  21.841  20.722  1.00  0.00     0.244 C 
HETATM    8  O   LIG     1      25.405  23.026  21.118  1.00  0.00    -0.272 OA
HETATM    9  O   LIG     1      22.897  19.100  21.223  1.00  0.00    -0.272 OA
HETATM   10  H   LIG     1      27.299  21.555  20.210  1.00  0.00     0.173 HD
HETATM   11  H   LIG     1      25.004  17.966  20.301  1.00  0.00     0.173 HD
ENDROOT
BRANCH   6  12
HETATM   12  C   LIG     1      22.912  21.871  21.745  1.00  0.00     0.025 C 
HETATM   13  C   LIG     1      21.894  22.904  21.240  1.00  0.00     0.007 C 
ENDBRANCH   6  12
BRANCH   6  14
HETATM   14  C   LIG     1      23.258  21.578  19.178  1.00  0.00     0.004 C 
HETATM   15  C   LIG     1      24.236  22.362  18.278  1.00  0.00     0.011 C 
HETATM   16  C   LIG     1      22.766  20.335  18.408  1.00  0.00     0.011 C 
ENDBRANCH   6  14
TORSDOF 2
ENDMDL
MODEL 15
REMARK VINA RESULT:      -3.5     15.838     17.417
REMARK  2 active torsions:
REMARK  status: ('A' for Active; 'I' for Inactive)
REMARK    1  A    between atoms: C_6  and  C_10 
REMARK    2  A    between atoms: C_6  and  C_7 
ROOT
HETATM    1  O   LIG     1      26.700  24.201  18.092  1.00  0.00    -0.247 OA
HETATM    2  C   LIG     1      25.881  23.567  18.808  1.00  0.00     0.329 C 
HETATM    3  N   LIG     1      24.804  22.856  18.204  1.00  0.00    -0.278 N 
HETATM    4  N   LIG     1      26.006  23.587  20.227  1.00  0.00    -0.278 N 
HETATM    5  C   LIG     1      25.107  22.837  21.049  1.00  0.00     0.244 C 
HETATM    6  C   LIG     1      24.230  21.732  20.452  1.00  0.00     0.125 C 
HETATM    7  C   LIG     1      23.896  22.091  19.002  1.00  0.00     0.244 C 
HETATM    8  O   LIG     1      22.839  21.657  18.468  1.00  0.00    -0.272 OA
HETATM    9  O   LIG     1      25.108  23.044  22.293  1.00  0.00    -0.272 OA
HETATM   10  H   LIG     1      24.645  22.938  17.174  1.00  0.00     0.173 HD
HETATM   11  H   LIG     1      26.723  24.202  20.673  1.00  0.00     0.173 HD
ENDROOT
BRANCH   6  12
HETATM   12  C   LIG     1      22.908  21.598  21.285  1.00  0.00     0.025 C 
HETATM   13  C   LIG     1      22.058  22.877  21.323  1.00  0.00     0.007 C 
ENDBRANCH   6  12
BRANCH   6  14
HETATM   14  C   LIG     1      25.061  20.389  20.449  1.00  0.00     0.004 C 
HETATM   15  C   LIG     1      25.002  19.607  21.779  1.00  0.00     0.011 C 
HETATM   16  C   LIG     1      24.703  19.430  19.296  1.00  0.00     0.011 C 
ENDBRANCH   6  14
TORSDOF 2
ENDMDL
MODEL 16
REMARK VINA RESULT:      -3.5     18.319     20.039
REMARK  2 active torsions:
REMARK  status: ('A' for Active; 'I' for Inactive)
REMARK    1  A    between atoms: C_6  and  C_10 
REMARK    2  A    between atoms: C_6  and  C_7 
ROOT
HETATM    1  O   LIG     1      19.233  22.661  31.377  1.00  0.00    -0.247 OA
HETATM    2  C   LIG     1      19.667  22.277  32.495  1.00  0.00     0.329 C 
HETATM    3  N   LIG     1      20.184  20.959  32.647  1.00  0.00    -0.278 N 
HETATM    4  N   LIG     1      19.611  23.147  33.622  1.00  0.00    -0.278 N 
HETATM    5  C   LIG     1      20.139  22.738  34.886  1.00  0.00     0.244 C 
HETATM    6  C   LIG     1      21.081  21.534  34.994  1.00  0.00     0.125 C 
HETATM    7  C   LIG     1      20.727  20.526  33.898  1.00  0.00     0.244 C 
HETATM    8  O   LIG     1      20.974  19.300  34.060  1.00  0.00    -0.272 OA
HETATM    9  O   LIG     1      19.884  23.437  35.905  1.00  0.00    -0.272 OA
HETATM   10  H   LIG     1      20.118  20.283  31.851  1.00  0.00     0.173 HD
HETATM   11  H   LIG     1      19.126  24.069  33.538  1.00  0.00     0.173 HD
ENDROOT
BRANCH   6  12
HETATM   12  C   LIG     1      20.924  20.865  36.403  1.00  0.00     0.025 C 
HETATM   13  C   LIG     1      19.515  20.324  36.688  1.00  0.00     0.007 C 
ENDBRANCH   6  12
BRANCH   6  14
HETATM   14  C   LIG     1      22.557  22.038  34.744  1.00  0.00     0.004 C 
HETATM   15  C   LIG     1      22.827  23.474  35.241  1.00  0.00     0.011 C 
HETATM   16  C   LIG     1      23.645  21.105  35.314  1.00  0.00     0.011 C 
ENDBRANCH   6  14
TORSDOF 2
ENDMDL
MODEL 17
REMARK VINA RESULT:      -3.3     16.095     17.213
REMARK  2 active torsions:
REMARK  status: ('A' for Active; 'I' for Inactive)
REMARK    1  A    between atoms: C_6  and  C_10 
REMARK    2  A    between atoms: C_6  and  C_7 
ROOT
HETATM    1  O   LIG     1      23.880  20.098  23.775  1.00  0.00    -0.247 OA
HETATM    2  C   LIG     1      23.880  20.599  22.619  1.00  0.00     0.329 C 
HETATM    3  N   LIG     1      22.897  21.566  22.260  1.00  0.00    -0.278 N 
HETATM    4  N   LIG     1      24.840  20.176  21.655  1.00  0.00    -0.278 N 
HETATM    5  C   LIG     1      24.876  20.768  20.354  1.00  0.00     0.244 C 
HETATM    6  C   LIG     1      24.150  22.086  20.068  1.00  0.00     0.125 C 
HETATM    7  C   LIG     1      22.916  22.180  20.967  1.00  0.00     0.244 C 
HETATM    8  O   LIG     1      21.917  22.861  20.606  1.00  0.00    -0.272 OA
HETATM    9  O   LIG     1      25.588  20.228  19.463  1.00  0.00    -0.272 OA
HETATM   10  H   LIG     1      22.124  21.789  22.927  1.00  0.00     0.173 HD
HETATM   11  H   LIG     1      25.484  19.385  21.882  1.00  0.00     0.173 HD
ENDROOT
BRANCH   6  12
HETATM   12  C   LIG     1      23.716  22.135  18.562  1.00  0.00     0.025 C 
HETATM   13  C   LIG     1      22.831  20.958  18.125  1.00  0.00     0.007 C 
ENDBRANCH   6  12
BRANCH   6  14
HETATM   14  C   LIG     1      25.122  23.275  20.437  1.00  0.00     0.004 C 
HETATM   15  C   LIG     1      26.204  22.908  21.474  1.00  0.00     0.011 C 
HETATM   16  C   LIG     1      25.807  23.930  19.220  1.00  0.00     0.011 C 
ENDBRANCH   6  14
TORSDOF 2
ENDMDL
MODEL 18
REMARK VINA RESULT:      -3.3     16.177     17.864
REMARK  2 active torsions:
REMARK  status: ('A' for Active; 'I' for Inactive)
REMARK    1  A    between atoms: C_6  and  C_10 
REMARK    2  A    between atoms: C_6  and  C_7 
ROOT
HETATM    1  O   LIG     1      24.923  19.663  18.510  1.00  0.00    -0.247 OA
HETATM    2  C   LIG     1      25.033  20.355  19.557  1.00  0.00     0.329 C 
HETATM    3  N   LIG     1      24.974  21.776  19.483  1.00  0.00    -0.278 N 
HETATM    4  N   LIG     1      25.253  19.721  20.813  1.00  0.00    -0.278 N 
HETATM    5  C   LIG     1      25.337  20.493  22.015  1.00  0.00     0.244 C 
HETATM    6  C   LIG     1      24.852  21.946  22.053  1.00  0.00     0.125 C 
HETATM    7  C   LIG     1      25.047  22.572  20.671  1.00  0.00     0.244 C 
HETATM    8  O   LIG     1      25.210  23.818  20.555  1.00  0.00    -0.272 OA
HETATM    9  O   LIG     1      25.742  19.931  23.069  1.00  0.00    -0.272 OA
HETATM   10  H   LIG     1      24.931  22.244  18.549  1.00  0.00     0.173 HD
HETATM   11  H   LIG     1      25.413  18.689  20.850  1.00  0.00     0.173 HD
ENDROOT
BRANCH   6  12
HETATM   12  C   LIG     1      25.671  22.749  23.122  1.00  0.00     0.025 C 
HETATM   13  C   LIG     1      24.933  22.956  24.453  1.00  0.00     0.007 C 
ENDBRANCH   6  12
BRANCH   6  14
HETATM   14  C   LIG     1      23.306  21.941  22.379  1.00  0.00     0.004 C 
HETATM   15  C   LIG     1      22.443  22.715  21.360  1.00  0.00     0.011 C 
HETATM   16  C   LIG     1      22.706  20.532  22.565  1.00  0.00     0.011 C 
ENDBRANCH   6  14
TORSDOF 2
ENDMDL
