REMARK  4 active torsions:
REMARK  status: ('A' for Active; 'I' for Inactive)
REMARK    1  A    between atoms: C_6  and  C_12 
REMARK    2  A    between atoms: C_6  and  C_7 
REMARK    3  A    between atoms: C_7  and  C_9 
REMARK    4  A    between atoms: C_9  and  C_10 
ROOT
HETATM    1  S   LIG     1      -4.179   3.119  -1.523  1.00  0.00    -0.040 SA
HETATM    2  C   LIG     1      -3.079   2.048  -0.953  1.00  0.00     0.181 A 
HETATM    3  N   LIG     1      -3.091   0.702  -1.413  1.00  0.00    -0.302 N 
HETATM    4  N   LIG     1      -2.112   2.459   0.004  1.00  0.00    -0.302 N 
HETATM    5  C   LIG     1      -1.170   1.539   0.560  1.00  0.00     0.242 A 
HETATM    6  C   LIG     1      -1.047   0.090   0.073  1.00  0.00     0.125 A 
HETATM    7  C   LIG     1      -2.106  -0.243  -0.987  1.00  0.00     0.242 A 
HETATM    8  O   LIG     1      -2.100  -1.378  -1.535  1.00  0.00    -0.272 OA
HETATM    9  O   LIG     1      -0.422   1.947   1.490  1.00  0.00    -0.272 OA
HETATM   10  H   LIG     1      -3.805   0.406  -2.116  1.00  0.00     0.171 HD
HETATM   11  H   LIG     1      -2.115   3.448   0.344  1.00  0.00     0.171 HD
ENDROOT
BRANCH   6  12
HETATM   12  C   LIG     1      -1.323  -0.827   1.317  1.00  0.00     0.025 C 
HETATM   13  C   LIG     1      -0.972  -2.313   1.161  1.00  0.00     0.007 C 
ENDBRANCH   6  12
BRANCH   6  14
HETATM   14  C   LIG     1       0.385  -0.130  -0.569  1.00  0.00     0.009 C 
HETATM   15  C   LIG     1       0.604   0.787  -1.796  1.00  0.00     0.011 C 
BRANCH  14  16
HETATM   16  C   LIG     1       1.569   0.038   0.429  1.00  0.00     0.005 C 
BRANCH  16  17
HETATM   17  C   LIG     1       2.835  -0.707  -0.027  1.00  0.00    -0.004 C 
HETATM   18  C   LIG     1       3.951  -0.581   1.007  1.00  0.00     0.005 C 
ENDBRANCH  16  17
ENDBRANCH  14  16
ENDBRANCH   6  14
TORSDOF 4
