MODEL 1
REMARK VINA RESULT:      -7.5      0.000      0.000
REMARK  4 active torsions:
REMARK  status: ('A' for Active; 'I' for Inactive)
REMARK    1  A    between atoms: C_2  and  C_14 
REMARK    2  A    between atoms: C_2  and  C_3 
REMARK    3  A    between atoms: C_3  and  C_12 
REMARK    4  A    between atoms: C_14  and  C_15 
ROOT
HETATM    1  C   LIG     1      16.621  37.167  22.689  1.00  0.00     0.125 A 
HETATM    2  C   LIG     1      17.415  36.230  21.768  1.00  0.00     0.244 A 
HETATM    3  N   LIG     1      18.241  36.715  20.707  1.00  0.00    -0.278 N 
HETATM    4  C   LIG     1      18.476  38.104  20.524  1.00  0.00     0.329 A 
HETATM    5  O   LIG     1      19.252  38.497  19.614  1.00  0.00    -0.247 OA
HETATM    6  O   LIG     1      17.371  34.985  21.963  1.00  0.00    -0.272 OA
HETATM    7  C   LIG     1      16.904  38.642  22.374  1.00  0.00     0.244 A 
HETATM    8  N   LIG     1      17.836  39.048  21.370  1.00  0.00    -0.278 N 
HETATM    9  O   LIG     1      16.283  39.540  23.005  1.00  0.00    -0.272 OA
HETATM   10  H   LIG     1      18.725  36.031  20.084  1.00  0.00     0.173 HD
HETATM   11  H   LIG     1      18.017  40.067  21.224  1.00  0.00     0.173 HD
ENDROOT
BRANCH   1  12
HETATM   12  C   LIG     1      17.032  36.856  24.189  1.00  0.00     0.009 C 
HETATM   13  C   LIG     1      18.248  37.667  24.696  1.00  0.00     0.011 C 
BRANCH  12  14
HETATM   14  C   LIG     1      17.270  35.332  24.417  1.00  0.00     0.005 C 
BRANCH  14  15
HETATM   15  C   LIG     1      17.228  34.907  25.902  1.00  0.00    -0.004 C 
HETATM   16  C   LIG     1      18.625  34.742  26.502  1.00  0.00     0.005 C 
ENDBRANCH  14  15
ENDBRANCH  12  14
ENDBRANCH   1  12
BRANCH   1  17
HETATM   17  C   LIG     1      15.097  36.940  22.399  1.00  0.00     0.025 C 
HETATM   18  C   LIG     1      14.753  35.919  21.306  1.00  0.00     0.007 C 
ENDBRANCH   1  17
TORSDOF 4
ENDMDL
MODEL 2
REMARK VINA RESULT:      -7.5      2.166      4.666
REMARK  4 active torsions:
REMARK  status: ('A' for Active; 'I' for Inactive)
REMARK    1  A    between atoms: C_2  and  C_14 
REMARK    2  A    between atoms: C_2  and  C_3 
REMARK    3  A    between atoms: C_3  and  C_12 
REMARK    4  A    between atoms: C_14  and  C_15 
ROOT
HETATM    1  C   LIG     1      16.493  37.105  22.504  1.00  0.00     0.125 A 
HETATM    2  C   LIG     1      16.445  38.351  23.400  1.00  0.00     0.244 A 
HETATM    3  N   LIG     1      16.846  38.326  24.772  1.00  0.00    -0.278 N 
HETATM    4  C   LIG     1      17.436  37.172  25.353  1.00  0.00     0.329 A 
HETATM    5  O   LIG     1      17.829  37.199  26.549  1.00  0.00    -0.247 OA
HETATM    6  O   LIG     1      16.069  39.452  22.913  1.00  0.00    -0.272 OA
HETATM    7  C   LIG     1      17.096  35.902  23.241  1.00  0.00     0.244 A 
HETATM    8  N   LIG     1      17.584  35.988  24.582  1.00  0.00    -0.278 N 
HETATM    9  O   LIG     1      17.152  34.785  22.661  1.00  0.00    -0.272 OA
HETATM   10  H   LIG     1      16.752  39.193  25.347  1.00  0.00     0.173 HD
HETATM   11  H   LIG     1      18.019  35.146  25.021  1.00  0.00     0.173 HD
ENDROOT
BRANCH   1  12
HETATM   12  C   LIG     1      17.375  37.444  21.230  1.00  0.00     0.009 C 
HETATM   13  C   LIG     1      17.949  36.203  20.507  1.00  0.00     0.011 C 
BRANCH  12  14
HETATM   14  C   LIG     1      18.520  38.445  21.571  1.00  0.00     0.005 C 
BRANCH  14  15
HETATM   15  C   LIG     1      18.913  39.370  20.397  1.00  0.00    -0.004 C 
HETATM   16  C   LIG     1      20.167  38.888  19.667  1.00  0.00     0.005 C 
ENDBRANCH  14  15
ENDBRANCH  12  14
ENDBRANCH   1  12
BRANCH   1  17
HETATM   17  C   LIG     1      15.016  36.713  22.155  1.00  0.00     0.025 C 
HETATM   18  C   LIG     1      14.830  35.663  21.050  1.00  0.00     0.007 C 
ENDBRANCH   1  17
TORSDOF 4
ENDMDL
MODEL 3
REMARK VINA RESULT:      -7.2      2.199      4.798
REMARK  4 active torsions:
REMARK  status: ('A' for Active; 'I' for Inactive)
REMARK    1  A    between atoms: C_2  and  C_14 
REMARK    2  A    between atoms: C_2  and  C_3 
REMARK    3  A    between atoms: C_3  and  C_12 
REMARK    4  A    between atoms: C_14  and  C_15 
ROOT
HETATM    1  C   LIG     1      16.850  37.001  22.896  1.00  0.00     0.125 A 
HETATM    2  C   LIG     1      16.919  37.596  24.309  1.00  0.00     0.244 A 
HETATM    3  N   LIG     1      17.099  36.789  25.475  1.00  0.00    -0.278 N 
HETATM    4  C   LIG     1      17.353  35.395  25.381  1.00  0.00     0.329 A 
HETATM    5  O   LIG     1      17.561  34.720  26.424  1.00  0.00    -0.247 OA
HETATM    6  O   LIG     1      16.848  38.846  24.460  1.00  0.00    -0.272 OA
HETATM    7  C   LIG     1      17.083  35.485  22.910  1.00  0.00     0.244 A 
HETATM    8  N   LIG     1      17.374  34.763  24.109  1.00  0.00    -0.278 N 
HETATM    9  O   LIG     1      16.999  34.835  21.833  1.00  0.00    -0.272 OA
HETATM   10  H   LIG     1      17.096  37.243  26.416  1.00  0.00     0.173 HD
HETATM   11  H   LIG     1      17.561  33.736  24.054  1.00  0.00     0.173 HD
ENDROOT
BRANCH   1  12
HETATM   12  C   LIG     1      17.961  37.701  22.007  1.00  0.00     0.009 C 
HETATM   13  C   LIG     1      17.897  39.247  22.012  1.00  0.00     0.011 C 
BRANCH  12  14
HETATM   14  C   LIG     1      17.948  37.167  20.543  1.00  0.00     0.005 C 
BRANCH  14  15
HETATM   15  C   LIG     1      19.270  37.405  19.778  1.00  0.00    -0.004 C 
HETATM   16  C   LIG     1      19.150  38.516  18.734  1.00  0.00     0.005 C 
ENDBRANCH  14  15
ENDBRANCH  12  14
ENDBRANCH   1  12
BRANCH   1  17
HETATM   17  C   LIG     1      15.392  37.217  22.360  1.00  0.00     0.025 C 
HETATM   18  C   LIG     1      14.774  36.054  21.571  1.00  0.00     0.007 C 
ENDBRANCH   1  17
TORSDOF 4
ENDMDL
MODEL 4
REMARK VINA RESULT:      -6.8      1.913      3.292
REMARK  4 active torsions:
REMARK  status: ('A' for Active; 'I' for Inactive)
REMARK    1  A    between atoms: C_2  and  C_14 
REMARK    2  A    between atoms: C_2  and  C_3 
REMARK    3  A    between atoms: C_3  and  C_12 
REMARK    4  A    between atoms: C_14  and  C_15 
ROOT
HETATM    1  C   LIG     1      16.783  37.047  22.002  1.00  0.00     0.125 A 
HETATM    2  C   LIG     1      15.332  36.560  21.889  1.00  0.00     0.244 A 
HETATM    3  N   LIG     1      14.864  35.789  20.780  1.00  0.00    -0.278 N 
HETATM    4  C   LIG     1      15.753  35.319  19.776  1.00  0.00     0.329 A 
HETATM    5  O   LIG     1      15.320  34.595  18.840  1.00  0.00    -0.247 OA
HETATM    6  O   LIG     1      14.517  36.816  22.817  1.00  0.00    -0.272 OA
HETATM    7  C   LIG     1      17.645  36.529  20.844  1.00  0.00     0.244 A 
HETATM    8  N   LIG     1      17.130  35.662  19.831  1.00  0.00    -0.278 N 
HETATM    9  O   LIG     1      18.850  36.889  20.759  1.00  0.00    -0.272 OA
HETATM   10  H   LIG     1      13.857  35.521  20.733  1.00  0.00     0.173 HD
HETATM   11  H   LIG     1      17.772  35.309  19.086  1.00  0.00     0.173 HD
ENDROOT
BRANCH   1  12
HETATM   12  C   LIG     1      17.376  36.527  23.379  1.00  0.00     0.009 C 
HETATM   13  C   LIG     1      17.121  35.027  23.654  1.00  0.00     0.011 C 
BRANCH  12  14
HETATM   14  C   LIG     1      16.879  37.386  24.581  1.00  0.00     0.005 C 
BRANCH  14  15
HETATM   15  C   LIG     1      17.997  37.781  25.573  1.00  0.00    -0.004 C 
HETATM   16  C   LIG     1      18.407  36.622  26.482  1.00  0.00     0.005 C 
ENDBRANCH  14  15
ENDBRANCH  12  14
ENDBRANCH   1  12
BRANCH   1  17
HETATM   17  C   LIG     1      16.772  38.610  21.878  1.00  0.00     0.025 C 
HETATM   18  C   LIG     1      18.117  39.323  22.082  1.00  0.00     0.007 C 
ENDBRANCH   1  17
TORSDOF 4
ENDMDL
MODEL 5
REMARK VINA RESULT:      -6.3      2.072      4.115
REMARK  4 active torsions:
REMARK  status: ('A' for Active; 'I' for Inactive)
REMARK    1  A    between atoms: C_2  and  C_14 
REMARK    2  A    between atoms: C_2  and  C_3 
REMARK    3  A    between atoms: C_3  and  C_12 
REMARK    4  A    between atoms: C_14  and  C_15 
ROOT
HETATM    1  C   LIG     1      17.154  36.729  21.904  1.00  0.00     0.125 A 
HETATM    2  C   LIG     1      17.143  35.931  23.215  1.00  0.00     0.244 A 
HETATM    3  N   LIG     1      17.153  36.562  24.498  1.00  0.00    -0.278 N 
HETATM    4  C   LIG     1      17.043  37.971  24.634  1.00  0.00     0.329 A 
HETATM    5  O   LIG     1      16.999  38.493  25.779  1.00  0.00    -0.247 OA
HETATM    6  O   LIG     1      17.093  34.672  23.175  1.00  0.00    -0.272 OA
HETATM    7  C   LIG     1      17.086  38.240  22.162  1.00  0.00     0.244 A 
HETATM    8  N   LIG     1      16.979  38.791  23.476  1.00  0.00    -0.278 N 
HETATM    9  O   LIG     1      17.145  39.038  21.187  1.00  0.00    -0.272 OA
HETATM   10  H   LIG     1      17.189  35.969  25.357  1.00  0.00     0.173 HD
HETATM   11  H   LIG     1      16.899  39.827  23.590  1.00  0.00     0.173 HD
ENDROOT
BRANCH   1  12
HETATM   12  C   LIG     1      15.901  36.281  21.040  1.00  0.00     0.009 C 
HETATM   13  C   LIG     1      14.584  36.166  21.843  1.00  0.00     0.011 C 
BRANCH  12  14
HETATM   14  C   LIG     1      16.177  34.956  20.268  1.00  0.00     0.005 C 
BRANCH  14  15
HETATM   15  C   LIG     1      15.237  33.794  20.662  1.00  0.00    -0.004 C 
HETATM   16  C   LIG     1      15.456  32.548  19.803  1.00  0.00     0.005 C 
ENDBRANCH  14  15
ENDBRANCH  12  14
ENDBRANCH   1  12
BRANCH   1  17
HETATM   17  C   LIG     1      18.527  36.464  21.196  1.00  0.00     0.025 C 
HETATM   18  C   LIG     1      18.659  36.962  19.750  1.00  0.00     0.007 C 
ENDBRANCH   1  17
TORSDOF 4
ENDMDL
MODEL 6
REMARK VINA RESULT:      -6.2      6.223      8.648
REMARK  4 active torsions:
REMARK  status: ('A' for Active; 'I' for Inactive)
REMARK    1  A    between atoms: C_2  and  C_14 
REMARK    2  A    between atoms: C_2  and  C_3 
REMARK    3  A    between atoms: C_3  and  C_12 
REMARK    4  A    between atoms: C_14  and  C_15 
ROOT
HETATM    1  C   LIG     1      14.645  32.638  17.141  1.00  0.00     0.125 A 
HETATM    2  C   LIG     1      15.191  34.068  17.266  1.00  0.00     0.244 A 
HETATM    3  N   LIG     1      15.529  34.654  18.525  1.00  0.00    -0.278 N 
HETATM    4  C   LIG     1      15.499  33.898  19.727  1.00  0.00     0.329 A 
HETATM    5  O   LIG     1      15.856  34.427  20.813  1.00  0.00    -0.247 OA
HETATM    6  O   LIG     1      15.382  34.752  16.223  1.00  0.00    -0.272 OA
HETATM    7  C   LIG     1      14.604  31.929  18.500  1.00  0.00     0.244 A 
HETATM    8  N   LIG     1      15.071  32.544  19.702  1.00  0.00    -0.278 N 
HETATM    9  O   LIG     1      14.125  30.765  18.577  1.00  0.00    -0.272 OA
HETATM   10  H   LIG     1      15.855  35.645  18.555  1.00  0.00     0.173 HD
HETATM   11  H   LIG     1      15.054  31.999  20.594  1.00  0.00     0.173 HD
ENDROOT
BRANCH   1  12
HETATM   12  C   LIG     1      15.585  31.833  16.149  1.00  0.00     0.009 C 
HETATM   13  C   LIG     1      16.876  32.584  15.746  1.00  0.00     0.011 C 
BRANCH  12  14
HETATM   14  C   LIG     1      14.815  31.366  14.877  1.00  0.00     0.005 C 
BRANCH  14  15
HETATM   15  C   LIG     1      15.048  29.882  14.513  1.00  0.00    -0.004 C 
HETATM   16  C   LIG     1      13.757  29.169  14.110  1.00  0.00     0.005 C 
ENDBRANCH  14  15
ENDBRANCH  12  14
ENDBRANCH   1  12
BRANCH   1  17
HETATM   17  C   LIG     1      13.159  32.737  16.650  1.00  0.00     0.025 C 
HETATM   18  C   LIG     1      12.338  31.441  16.690  1.00  0.00     0.007 C 
ENDBRANCH   1  17
TORSDOF 4
ENDMDL
MODEL 7
REMARK VINA RESULT:      -5.8      6.046      8.439
REMARK  4 active torsions:
REMARK  status: ('A' for Active; 'I' for Inactive)
REMARK    1  A    between atoms: C_2  and  C_14 
REMARK    2  A    between atoms: C_2  and  C_3 
REMARK    3  A    between atoms: C_3  and  C_12 
REMARK    4  A    between atoms: C_14  and  C_15 
ROOT
HETATM    1  C   LIG     1      15.006  32.552  17.229  1.00  0.00     0.125 A 
HETATM    2  C   LIG     1      14.773  32.077  18.671  1.00  0.00     0.244 A 
HETATM    3  N   LIG     1      14.933  32.941  19.799  1.00  0.00    -0.278 N 
HETATM    4  C   LIG     1      15.193  34.328  19.640  1.00  0.00     0.329 A 
HETATM    5  O   LIG     1      15.274  35.074  20.653  1.00  0.00    -0.247 OA
HETATM    6  O   LIG     1      14.397  30.892  18.881  1.00  0.00    -0.272 OA
HETATM    7  C   LIG     1      15.331  34.050  17.173  1.00  0.00     0.244 A 
HETATM    8  N   LIG     1      15.358  34.875  18.340  1.00  0.00    -0.278 N 
HETATM    9  O   LIG     1      15.607  34.583  16.064  1.00  0.00    -0.272 OA
HETATM   10  H   LIG     1      14.804  32.554  20.760  1.00  0.00     0.173 HD
HETATM   11  H   LIG     1      15.549  35.897  18.238  1.00  0.00     0.173 HD
ENDROOT
BRANCH   1  12
HETATM   12  C   LIG     1      13.689  32.263  16.393  1.00  0.00     0.009 C 
HETATM   13  C   LIG     1      12.455  33.075  16.851  1.00  0.00     0.011 C 
BRANCH  12  14
HETATM   14  C   LIG     1      13.350  30.742  16.360  1.00  0.00     0.005 C 
BRANCH  14  15
HETATM   15  C   LIG     1      13.073  30.193  14.942  1.00  0.00    -0.004 C 
HETATM   16  C   LIG     1      14.324  29.606  14.288  1.00  0.00     0.005 C 
ENDBRANCH  14  15
ENDBRANCH  12  14
ENDBRANCH   1  12
BRANCH   1  17
HETATM   17  C   LIG     1      16.271  31.805  16.680  1.00  0.00     0.025 C 
HETATM   18  C   LIG     1      16.677  32.120  15.234  1.00  0.00     0.007 C 
ENDBRANCH   1  17
TORSDOF 4
ENDMDL
MODEL 8
REMARK VINA RESULT:      -5.5      6.145      8.629
REMARK  4 active torsions:
REMARK  status: ('A' for Active; 'I' for Inactive)
REMARK    1  A    between atoms: C_2  and  C_14 
REMARK    2  A    between atoms: C_2  and  C_3 
REMARK    3  A    between atoms: C_3  and  C_12 
REMARK    4  A    between atoms: C_14  and  C_15 
ROOT
HETATM    1  C   LIG     1      14.385  32.671  16.865  1.00  0.00     0.125 A 
HETATM    2  C   LIG     1      14.983  34.038  17.225  1.00  0.00     0.244 A 
HETATM    3  N   LIG     1      15.448  34.352  18.539  1.00  0.00    -0.278 N 
HETATM    4  C   LIG     1      15.503  33.367  19.562  1.00  0.00     0.329 A 
HETATM    5  O   LIG     1      15.970  33.659  20.694  1.00  0.00    -0.247 OA
HETATM    6  O   LIG     1      15.102  34.918  16.329  1.00  0.00    -0.272 OA
HETATM    7  C   LIG     1      14.443  31.699  18.051  1.00  0.00     0.244 A 
HETATM    8  N   LIG     1      15.034  32.051  19.304  1.00  0.00    -0.278 N 
HETATM    9  O   LIG     1      13.938  30.550  17.936  1.00  0.00    -0.272 OA
HETATM   10  H   LIG     1      15.806  35.312  18.739  1.00  0.00     0.173 HD
HETATM   11  H   LIG     1      15.079  31.337  20.065  1.00  0.00     0.173 HD
ENDROOT
BRANCH   1  12
HETATM   12  C   LIG     1      15.209  32.073  15.648  1.00  0.00     0.009 C 
HETATM   13  C   LIG     1      14.699  30.701  15.148  1.00  0.00     0.011 C 
BRANCH  12  14
HETATM   14  C   LIG     1      16.733  31.997  15.966  1.00  0.00     0.005 C 
BRANCH  14  15
HETATM   15  C   LIG     1      17.615  32.826  15.005  1.00  0.00    -0.004 C 
HETATM   16  C   LIG     1      17.000  32.954  13.611  1.00  0.00     0.005 C 
ENDBRANCH  14  15
ENDBRANCH  12  14
ENDBRANCH   1  12
BRANCH   1  17
HETATM   17  C   LIG     1      12.865  32.884  16.545  1.00  0.00     0.025 C 
HETATM   18  C   LIG     1      11.951  31.663  16.718  1.00  0.00     0.007 C 
ENDBRANCH   1  17
TORSDOF 4
ENDMDL
MODEL 9
REMARK VINA RESULT:      -5.4     16.925     18.353
REMARK  4 active torsions:
REMARK  status: ('A' for Active; 'I' for Inactive)
REMARK    1  A    between atoms: C_2  and  C_14 
REMARK    2  A    between atoms: C_2  and  C_3 
REMARK    3  A    between atoms: C_3  and  C_12 
REMARK    4  A    between atoms: C_14  and  C_15 
ROOT
HETATM    1  C   LIG     1      27.696  28.377  33.997  1.00  0.00     0.125 A 
HETATM    2  C   LIG     1      26.646  27.399  33.453  1.00  0.00     0.244 A 
HETATM    3  N   LIG     1      26.326  26.171  34.111  1.00  0.00    -0.278 N 
HETATM    4  C   LIG     1      26.872  25.845  35.382  1.00  0.00     0.329 A 
HETATM    5  O   LIG     1      26.528  24.782  35.962  1.00  0.00    -0.247 OA
HETATM    6  O   LIG     1      26.012  27.690  32.403  1.00  0.00    -0.272 OA
HETATM    7  C   LIG     1      28.262  27.907  35.344  1.00  0.00     0.244 A 
HETATM    8  N   LIG     1      27.804  26.722  35.998  1.00  0.00    -0.278 N 
HETATM    9  O   LIG     1      29.180  28.572  35.896  1.00  0.00    -0.272 OA
HETATM   10  H   LIG     1      25.634  25.523  33.674  1.00  0.00     0.173 HD
HETATM   11  H   LIG     1      28.199  26.470  36.932  1.00  0.00     0.173 HD
ENDROOT
BRANCH   1  12
HETATM   12  C   LIG     1      27.008  29.795  34.176  1.00  0.00     0.009 C 
HETATM   13  C   LIG     1      27.974  30.994  34.022  1.00  0.00     0.011 C 
BRANCH  12  14
HETATM   14  C   LIG     1      26.238  29.896  35.527  1.00  0.00     0.005 C 
BRANCH  14  15
HETATM   15  C   LIG     1      25.888  31.343  35.942  1.00  0.00    -0.004 C 
HETATM   16  C   LIG     1      26.337  31.666  37.368  1.00  0.00     0.005 C 
ENDBRANCH  14  15
ENDBRANCH  12  14
ENDBRANCH   1  12
BRANCH   1  17
HETATM   17  C   LIG     1      28.901  28.390  32.994  1.00  0.00     0.025 C 
HETATM   18  C   LIG     1      29.561  27.035  32.700  1.00  0.00     0.007 C 
ENDBRANCH   1  17
TORSDOF 4
ENDMDL
MODEL 10
REMARK VINA RESULT:      -5.3      2.259      4.240
REMARK  4 active torsions:
REMARK  status: ('A' for Active; 'I' for Inactive)
REMARK    1  A    between atoms: C_2  and  C_14 
REMARK    2  A    between atoms: C_2  and  C_3 
REMARK    3  A    between atoms: C_3  and  C_12 
REMARK    4  A    between atoms: C_14  and  C_15 
ROOT
HETATM    1  C   LIG     1      16.877  37.120  23.197  1.00  0.00     0.125 A 
HETATM    2  C   LIG     1      17.056  35.598  23.119  1.00  0.00     0.244 A 
HETATM    3  N   LIG     1      16.077  34.738  22.531  1.00  0.00    -0.278 N 
HETATM    4  C   LIG     1      14.936  35.260  21.865  1.00  0.00     0.329 A 
HETATM    5  O   LIG     1      14.119  34.479  21.309  1.00  0.00    -0.247 OA
HETATM    6  O   LIG     1      18.116  35.074  23.560  1.00  0.00    -0.272 OA
HETATM    7  C   LIG     1      15.590  37.574  22.497  1.00  0.00     0.244 A 
HETATM    8  N   LIG     1      14.717  36.662  21.826  1.00  0.00    -0.278 N 
HETATM    9  O   LIG     1      15.267  38.793  22.524  1.00  0.00    -0.272 OA
HETATM   10  H   LIG     1      16.231  33.706  22.543  1.00  0.00     0.173 HD
HETATM   11  H   LIG     1      13.873  37.032  21.334  1.00  0.00     0.173 HD
ENDROOT
BRANCH   1  12
HETATM   12  C   LIG     1      18.129  37.804  22.502  1.00  0.00     0.009 C 
HETATM   13  C   LIG     1      18.280  39.313  22.807  1.00  0.00     0.011 C 
BRANCH  12  14
HETATM   14  C   LIG     1      18.136  37.563  20.963  1.00  0.00     0.005 C 
BRANCH  14  15
HETATM   15  C   LIG     1      18.655  38.766  20.143  1.00  0.00    -0.004 C 
HETATM   16  C   LIG     1      20.071  38.542  19.611  1.00  0.00     0.005 C 
ENDBRANCH  14  15
ENDBRANCH  12  14
ENDBRANCH   1  12
BRANCH   1  17
HETATM   17  C   LIG     1      16.715  37.504  24.709  1.00  0.00     0.025 C 
HETATM   18  C   LIG     1      17.947  37.302  25.602  1.00  0.00     0.007 C 
ENDBRANCH   1  17
TORSDOF 4
ENDMDL
MODEL 11
REMARK VINA RESULT:      -5.2      6.262      7.968
REMARK  4 active torsions:
REMARK  status: ('A' for Active; 'I' for Inactive)
REMARK    1  A    between atoms: C_2  and  C_14 
REMARK    2  A    between atoms: C_2  and  C_3 
REMARK    3  A    between atoms: C_3  and  C_12 
REMARK    4  A    between atoms: C_14  and  C_15 
ROOT
HETATM    1  C   LIG     1      14.688  32.608  16.985  1.00  0.00     0.125 A 
HETATM    2  C   LIG     1      14.222  31.193  16.615  1.00  0.00     0.244 A 
HETATM    3  N   LIG     1      14.622  30.543  15.406  1.00  0.00    -0.278 N 
HETATM    4  C   LIG     1      15.583  31.124  14.535  1.00  0.00     0.329 A 
HETATM    5  O   LIG     1      15.957  30.503  13.505  1.00  0.00    -0.247 OA
HETATM    6  O   LIG     1      13.482  30.554  17.412  1.00  0.00    -0.272 OA
HETATM    7  C   LIG     1      15.679  33.164  15.954  1.00  0.00     0.244 A 
HETATM    8  N   LIG     1      16.123  32.404  14.828  1.00  0.00    -0.278 N 
HETATM    9  O   LIG     1      16.111  34.341  16.083  1.00  0.00    -0.272 OA
HETATM   10  H   LIG     1      14.241  29.597  15.184  1.00  0.00     0.173 HD
HETATM   11  H   LIG     1      16.828  32.820  14.179  1.00  0.00     0.173 HD
ENDROOT
BRANCH   1  12
HETATM   12  C   LIG     1      15.382  32.545  18.410  1.00  0.00     0.009 C 
HETATM   13  C   LIG     1      14.749  31.521  19.381  1.00  0.00     0.011 C 
BRANCH  12  14
HETATM   14  C   LIG     1      15.450  33.950  19.080  1.00  0.00     0.005 C 
BRANCH  14  15
HETATM   15  C   LIG     1      15.733  33.906  20.599  1.00  0.00    -0.004 C 
HETATM   16  C   LIG     1      15.259  35.170  21.318  1.00  0.00     0.005 C 
ENDBRANCH  14  15
ENDBRANCH  12  14
ENDBRANCH   1  12
BRANCH   1  17
HETATM   17  C   LIG     1      13.434  33.548  16.942  1.00  0.00     0.025 C 
HETATM   18  C   LIG     1      12.100  32.894  16.556  1.00  0.00     0.007 C 
ENDBRANCH   1  17
TORSDOF 4
ENDMDL
MODEL 12
REMARK VINA RESULT:      -5.1      2.024      3.517
REMARK  4 active torsions:
REMARK  status: ('A' for Active; 'I' for Inactive)
REMARK    1  A    between atoms: C_2  and  C_14 
REMARK    2  A    between atoms: C_2  and  C_3 
REMARK    3  A    between atoms: C_3  and  C_12 
REMARK    4  A    between atoms: C_14  and  C_15 
ROOT
HETATM    1  C   LIG     1      16.699  35.847  22.037  1.00  0.00     0.125 A 
HETATM    2  C   LIG     1      17.535  36.341  20.849  1.00  0.00     0.244 A 
HETATM    3  N   LIG     1      17.236  35.985  19.497  1.00  0.00    -0.278 N 
HETATM    4  C   LIG     1      16.065  35.253  19.165  1.00  0.00     0.329 A 
HETATM    5  O   LIG     1      15.800  35.001  17.959  1.00  0.00    -0.247 OA
HETATM    6  O   LIG     1      18.508  37.117  21.055  1.00  0.00    -0.272 OA
HETATM    7  C   LIG     1      15.491  35.023  21.574  1.00  0.00     0.244 A 
HETATM    8  N   LIG     1      15.192  34.808  20.193  1.00  0.00    -0.278 N 
HETATM    9  O   LIG     1      14.735  34.494  22.433  1.00  0.00    -0.272 OA
HETATM   10  H   LIG     1      17.864  36.315  18.731  1.00  0.00     0.173 HD
HETATM   11  H   LIG     1      14.334  34.270  19.934  1.00  0.00     0.173 HD
ENDROOT
BRANCH   1  12
HETATM   12  C   LIG     1      16.198  37.112  22.853  1.00  0.00     0.009 C 
HETATM   13  C   LIG     1      15.315  38.085  22.037  1.00  0.00     0.011 C 
BRANCH  12  14
HETATM   14  C   LIG     1      17.385  37.883  23.506  1.00  0.00     0.005 C 
BRANCH  14  15
HETATM   15  C   LIG     1      17.220  38.115  25.026  1.00  0.00    -0.004 C 
HETATM   16  C   LIG     1      18.305  37.415  25.845  1.00  0.00     0.005 C 
ENDBRANCH  14  15
ENDBRANCH  12  14
ENDBRANCH   1  12
BRANCH   1  17
HETATM   17  C   LIG     1      17.597  34.876  22.880  1.00  0.00     0.025 C 
HETATM   18  C   LIG     1      17.248  34.741  24.369  1.00  0.00     0.007 C 
ENDBRANCH   1  17
TORSDOF 4
ENDMDL
MODEL 13
REMARK VINA RESULT:      -5.1     16.795     18.324
REMARK  4 active torsions:
REMARK  status: ('A' for Active; 'I' for Inactive)
REMARK    1  A    between atoms: C_2  and  C_14 
REMARK    2  A    between atoms: C_2  and  C_3 
REMARK    3  A    between atoms: C_3  and  C_12 
REMARK    4  A    between atoms: C_14  and  C_15 
ROOT
HETATM    1  C   LIG     1      28.353  29.506  34.888  1.00  0.00     0.125 A 
HETATM    2  C   LIG     1      28.113  28.674  36.156  1.00  0.00     0.244 A 
HETATM    3  N   LIG     1      27.099  29.000  37.109  1.00  0.00    -0.278 N 
HETATM    4  C   LIG     1      26.167  30.046  36.872  1.00  0.00     0.329 A 
HETATM    5  O   LIG     1      25.250  30.274  37.705  1.00  0.00    -0.247 OA
HETATM    6  O   LIG     1      28.809  27.642  36.361  1.00  0.00    -0.272 OA
HETATM    7  C   LIG     1      27.328  30.639  34.754  1.00  0.00     0.244 A 
HETATM    8  N   LIG     1      26.267  30.831  35.693  1.00  0.00    -0.278 N 
HETATM    9  O   LIG     1      27.424  31.452  33.795  1.00  0.00    -0.272 OA
HETATM   10  H   LIG     1      27.008  28.424  37.975  1.00  0.00     0.173 HD
HETATM   11  H   LIG     1      25.574  31.597  35.531  1.00  0.00     0.173 HD
ENDROOT
BRANCH   1  12
HETATM   12  C   LIG     1      28.246  28.542  33.633  1.00  0.00     0.009 C 
HETATM   13  C   LIG     1      28.967  29.064  32.368  1.00  0.00     0.011 C 
BRANCH  12  14
HETATM   14  C   LIG     1      26.765  28.190  33.301  1.00  0.00     0.005 C 
BRANCH  14  15
HETATM   15  C   LIG     1      26.529  26.694  32.995  1.00  0.00    -0.004 C 
HETATM   16  C   LIG     1      26.493  25.837  34.262  1.00  0.00     0.005 C 
ENDBRANCH  14  15
ENDBRANCH  12  14
ENDBRANCH   1  12
BRANCH   1  17
HETATM   17  C   LIG     1      29.755  30.195  35.029  1.00  0.00     0.025 C 
HETATM   18  C   LIG     1      29.920  31.178  36.196  1.00  0.00     0.007 C 
ENDBRANCH   1  17
TORSDOF 4
ENDMDL
MODEL 14
REMARK VINA RESULT:      -4.5     16.637     18.422
REMARK  4 active torsions:
REMARK  status: ('A' for Active; 'I' for Inactive)
REMARK    1  A    between atoms: C_2  and  C_14 
REMARK    2  A    between atoms: C_2  and  C_3 
REMARK    3  A    between atoms: C_3  and  C_12 
REMARK    4  A    between atoms: C_14  and  C_15 
ROOT
HETATM    1  C   LIG     1      28.339  29.579  34.794  1.00  0.00     0.125 A 
HETATM    2  C   LIG     1      28.924  30.478  35.893  1.00  0.00     0.244 A 
HETATM    3  N   LIG     1      28.102  31.252  36.770  1.00  0.00    -0.278 N 
HETATM    4  C   LIG     1      26.687  31.134  36.758  1.00  0.00     0.329 A 
HETATM    5  O   LIG     1      25.993  31.789  37.580  1.00  0.00    -0.247 OA
HETATM    6  O   LIG     1      30.173  30.521  36.060  1.00  0.00    -0.272 OA
HETATM    7  C   LIG     1      26.806  29.563  34.834  1.00  0.00     0.244 A 
HETATM    8  N   LIG     1      26.055  30.275  35.820  1.00  0.00    -0.278 N 
HETATM    9  O   LIG     1      26.170  28.917  33.957  1.00  0.00    -0.272 OA
HETATM   10  H   LIG     1      28.555  31.879  37.471  1.00  0.00     0.173 HD
HETATM   11  H   LIG     1      25.013  30.198  35.821  1.00  0.00     0.173 HD
ENDROOT
BRANCH   1  12
HETATM   12  C   LIG     1      28.891  28.107  35.010  1.00  0.00     0.009 C 
HETATM   13  C   LIG     1      29.338  27.399  33.710  1.00  0.00     0.011 C 
BRANCH  12  14
HETATM   14  C   LIG     1      27.872  27.218  35.784  1.00  0.00     0.005 C 
BRANCH  14  15
HETATM   15  C   LIG     1      27.759  25.776  35.239  1.00  0.00    -0.004 C 
HETATM   16  C   LIG     1      26.368  25.469  34.682  1.00  0.00     0.005 C 
ENDBRANCH  14  15
ENDBRANCH  12  14
ENDBRANCH   1  12
BRANCH   1  17
HETATM   17  C   LIG     1      28.738  30.198  33.410  1.00  0.00     0.025 C 
HETATM   18  C   LIG     1      28.375  31.673  33.190  1.00  0.00     0.007 C 
ENDBRANCH   1  17
TORSDOF 4
ENDMDL
