REMARK  4 active torsions:
REMARK  status: ('A' for Active; 'I' for Inactive)
REMARK    1  A    between atoms: C_2  and  C_14 
REMARK    2  A    between atoms: C_2  and  C_3 
REMARK    3  A    between atoms: C_3  and  C_12 
REMARK    4  A    between atoms: C_14  and  C_15 
ROOT
HETATM    1  C   LIG     1      -1.085   0.064  -0.274  1.00  0.00     0.125 A 
HETATM    2  C   LIG     1      -1.565  -0.520   1.062  1.00  0.00     0.244 A 
HETATM    3  N   LIG     1      -2.067  -1.853   1.182  1.00  0.00    -0.278 N 
HETATM    4  C   LIG     1      -2.030  -2.761   0.090  1.00  0.00     0.329 A 
HETATM    5  O   LIG     1      -2.429  -3.946   0.242  1.00  0.00    -0.247 OA
HETATM    6  O   LIG     1      -1.491   0.181   2.108  1.00  0.00    -0.272 OA
HETATM    7  C   LIG     1      -1.135  -0.980  -1.397  1.00  0.00     0.244 A 
HETATM    8  N   LIG     1      -1.540  -2.332  -1.172  1.00  0.00    -0.278 N 
HETATM    9  O   LIG     1      -0.828  -0.641  -2.572  1.00  0.00    -0.272 OA
HETATM   10  H   LIG     1      -2.420  -2.184   2.107  1.00  0.00     0.173 HD
HETATM   11  H   LIG     1      -1.519  -3.010  -1.967  1.00  0.00     0.173 HD
ENDROOT
BRANCH   1  12
HETATM   12  C   LIG     1       0.406   0.572  -0.087  1.00  0.00     0.009 C 
HETATM   13  C   LIG     1       0.951   1.395  -1.278  1.00  0.00     0.011 C 
BRANCH  12  14
HETATM   14  C   LIG     1       1.377  -0.601   0.245  1.00  0.00     0.005 C 
BRANCH  14  15
HETATM   15  C   LIG     1       2.767  -0.142   0.741  1.00  0.00    -0.004 C 
HETATM   16  C   LIG     1       3.849  -0.294  -0.329  1.00  0.00     0.005 C 
ENDBRANCH  14  15
ENDBRANCH  12  14
ENDBRANCH   1  12
BRANCH   1  17
HETATM   17  C   LIG     1      -2.085   1.200  -0.684  1.00  0.00     0.025 C 
HETATM   18  C   LIG     1      -2.105   2.449   0.208  1.00  0.00     0.007 C 
ENDBRANCH   1  17
TORSDOF 4
