REMARK  5 active torsions:
REMARK  status: ('A' for Active; 'I' for Inactive)
REMARK    1  A    between atoms: O_1  and  C_2 
REMARK    2  A    between atoms: C_2  and  C_3 
REMARK    3  A    between atoms: C_2  and  C_9 
REMARK    4  A    between atoms: C_2  and  C_15 
REMARK    5  A    between atoms: C_15  and  O_16 
ROOT
HETATM    1  C   LIG     1      -0.319  -1.182   0.112  1.00  0.00     0.198 C 
ENDROOT
BRANCH   1   2
HETATM    2  O   LIG     1      -0.833  -2.114  -0.816  1.00  0.00    -0.370 OA
HETATM    3  H   LIG     1      -1.719  -2.422  -0.486  1.00  0.00     0.212 HD
ENDBRANCH   1   2
BRANCH   1   4
HETATM    4  C   LIG     1       1.068  -0.745  -0.365  1.00  0.00    -0.009 A 
HETATM    5  C   LIG     1       2.070  -0.334   0.542  1.00  0.00     0.011 A 
HETATM    6  C   LIG     1       3.311   0.115   0.080  1.00  0.00     0.001 A 
HETATM    7  C   LIG     1       3.566   0.183  -1.290  1.00  0.00     0.000 A 
HETATM    8  C   LIG     1       2.578  -0.188  -2.202  1.00  0.00     0.001 A 
HETATM    9  C   LIG     1       1.335  -0.638  -1.747  1.00  0.00     0.011 A 
ENDBRANCH   1   4
BRANCH   1  10
HETATM   10  C   LIG     1      -1.200   0.072   0.172  1.00  0.00    -0.009 A 
HETATM   11  C   LIG     1      -0.974   1.055   1.160  1.00  0.00     0.011 A 
HETATM   12  C   LIG     1      -1.741   2.222   1.197  1.00  0.00     0.001 A 
HETATM   13  C   LIG     1      -2.734   2.438   0.241  1.00  0.00     0.000 A 
HETATM   14  C   LIG     1      -2.955   1.491  -0.759  1.00  0.00     0.001 A 
HETATM   15  C   LIG     1      -2.191   0.321  -0.802  1.00  0.00     0.011 A 
ENDBRANCH   1  10
BRANCH   1  16
HETATM   16  C   LIG     1      -0.247  -1.891   1.458  1.00  0.00     0.186 C 
HETATM   17  O   LIG     1       0.590  -2.818   1.633  1.00  0.00    -0.647 OA
BRANCH  16  18
HETATM   18  O   LIG     1      -1.151  -1.589   2.474  1.00  0.00    -0.774 OA
HETATM   19  H   LIG     1      -1.121  -2.079   3.360  1.00  0.00     0.167 HD
ENDBRANCH  16  18
ENDBRANCH   1  16
TORSDOF 5
