MODEL 1
REMARK VINA RESULT:      -7.5      0.000      0.000
REMARK  4 active torsions:
REMARK  status: ('A' for Active; 'I' for Inactive)
REMARK    1  A    between atoms: O_1  and  C_2 
REMARK    2  A    between atoms: C_2  and  C_3 
REMARK    3  A    between atoms: C_3  and  O_5 
REMARK    4  A    between atoms: O_5  and  C_6 
ROOT
HETATM    1  C   LIG     1      17.030  36.003  24.110  1.00  0.00     0.091 A 
HETATM    2  C   LIG     1      17.260  34.855  24.897  1.00  0.00     0.038 A 
HETATM    3  C   LIG     1      17.905  34.965  26.132  1.00  0.00     0.003 A 
HETATM    4  C   LIG     1      18.328  36.212  26.595  1.00  0.00     0.002 A 
HETATM    5  C   LIG     1      18.107  37.354  25.822  1.00  0.00     0.026 A 
HETATM    6  C   LIG     1      17.462  37.253  24.585  1.00  0.00     0.067 A 
HETATM    7 CL   LIG     1      17.194  38.706  23.634  1.00  0.00    -0.081 Cl
ENDROOT
BRANCH   1   8
HETATM    8  O   LIG     1      16.386  35.943  22.863  1.00  0.00    -0.334 OA
BRANCH   8   9
HETATM    9  C   LIG     1      16.837  35.198  21.730  1.00  0.00     0.222 C 
HETATM   10  C   LIG     1      17.558  36.141  20.771  1.00  0.00     0.051 C 
BRANCH   9  11
HETATM   11  C   LIG     1      15.675  34.550  21.028  1.00  0.00     0.170 C 
HETATM   12  O   LIG     1      15.864  33.928  19.949  1.00  0.00    -0.648 OA
BRANCH  11  13
HETATM   13  O   LIG     1      14.383  34.659  21.535  1.00  0.00    -0.774 OA
HETATM   14  H   LIG     1      13.837  33.836  21.766  1.00  0.00     0.167 HD
ENDBRANCH  11  13
ENDBRANCH   9  11
ENDBRANCH   8   9
ENDBRANCH   1   8
TORSDOF 4
ENDMDL
MODEL 2
REMARK VINA RESULT:      -6.7      2.641      5.291
REMARK  4 active torsions:
REMARK  status: ('A' for Active; 'I' for Inactive)
REMARK    1  A    between atoms: O_1  and  C_2 
REMARK    2  A    between atoms: C_2  and  C_3 
REMARK    3  A    between atoms: C_3  and  O_5 
REMARK    4  A    between atoms: O_5  and  C_6 
ROOT
HETATM    1  C   LIG     1      17.755  37.637  21.823  1.00  0.00     0.091 A 
HETATM    2  C   LIG     1      18.444  38.863  21.714  1.00  0.00     0.038 A 
HETATM    3  C   LIG     1      19.136  39.181  20.541  1.00  0.00     0.003 A 
HETATM    4  C   LIG     1      19.152  38.285  19.471  1.00  0.00     0.002 A 
HETATM    5  C   LIG     1      18.475  37.067  19.571  1.00  0.00     0.026 A 
HETATM    6  C   LIG     1      17.780  36.741  20.741  1.00  0.00     0.067 A 
HETATM    7 CL   LIG     1      16.936  35.204  20.838  1.00  0.00    -0.081 Cl
ENDROOT
BRANCH   1   8
HETATM    8  O   LIG     1      17.046  37.274  22.981  1.00  0.00    -0.334 OA
BRANCH   8   9
HETATM    9  C   LIG     1      17.614  36.685  24.152  1.00  0.00     0.222 C 
HETATM   10  C   LIG     1      17.069  35.269  24.310  1.00  0.00     0.051 C 
BRANCH   9  11
HETATM   11  C   LIG     1      17.272  37.499  25.371  1.00  0.00     0.170 C 
HETATM   12  O   LIG     1      16.828  38.670  25.236  1.00  0.00    -0.648 OA
BRANCH  11  13
HETATM   13  O   LIG     1      17.471  36.988  26.650  1.00  0.00    -0.774 OA
HETATM   14  H   LIG     1      18.319  36.487  26.890  1.00  0.00     0.167 HD
ENDBRANCH  11  13
ENDBRANCH   9  11
ENDBRANCH   8   9
ENDBRANCH   1   8
TORSDOF 4
ENDMDL
MODEL 3
REMARK VINA RESULT:      -6.5      3.016      3.909
REMARK  4 active torsions:
REMARK  status: ('A' for Active; 'I' for Inactive)
REMARK    1  A    between atoms: O_1  and  C_2 
REMARK    2  A    between atoms: C_2  and  C_3 
REMARK    3  A    between atoms: C_3  and  O_5 
REMARK    4  A    between atoms: O_5  and  C_6 
ROOT
HETATM    1  C   LIG     1      17.783  36.724  20.841  1.00  0.00     0.091 A 
HETATM    2  C   LIG     1      18.545  36.777  19.656  1.00  0.00     0.038 A 
HETATM    3  C   LIG     1      19.346  37.890  19.382  1.00  0.00     0.003 A 
HETATM    4  C   LIG     1      19.394  38.958  20.280  1.00  0.00     0.002 A 
HETATM    5  C   LIG     1      18.640  38.916  21.454  1.00  0.00     0.026 A 
HETATM    6  C   LIG     1      17.836  37.806  21.736  1.00  0.00     0.067 A 
HETATM    7 CL   LIG     1      16.900  37.778  23.223  1.00  0.00    -0.081 Cl
ENDROOT
BRANCH   1   8
HETATM    8  O   LIG     1      16.964  35.627  21.160  1.00  0.00    -0.334 OA
BRANCH   8   9
HETATM    9  C   LIG     1      15.662  35.379  20.624  1.00  0.00     0.222 C 
HETATM   10  C   LIG     1      14.634  36.161  21.437  1.00  0.00     0.051 C 
BRANCH   9  11
HETATM   11  C   LIG     1      15.341  33.910  20.678  1.00  0.00     0.170 C 
HETATM   12  O   LIG     1      16.034  33.093  20.017  1.00  0.00    -0.648 OA
BRANCH  11  13
HETATM   13  O   LIG     1      14.263  33.442  21.425  1.00  0.00    -0.774 OA
HETATM   14  H   LIG     1      14.311  32.561  21.923  1.00  0.00     0.167 HD
ENDBRANCH  11  13
ENDBRANCH   9  11
ENDBRANCH   8   9
ENDBRANCH   1   8
TORSDOF 4
ENDMDL
MODEL 4
REMARK VINA RESULT:      -6.3      2.290      4.929
REMARK  4 active torsions:
REMARK  status: ('A' for Active; 'I' for Inactive)
REMARK    1  A    between atoms: O_1  and  C_2 
REMARK    2  A    between atoms: C_2  and  C_3 
REMARK    3  A    between atoms: C_3  and  O_5 
REMARK    4  A    between atoms: O_5  and  C_6 
ROOT
HETATM    1  C   LIG     1      17.889  37.468  21.178  1.00  0.00     0.091 A 
HETATM    2  C   LIG     1      18.285  36.632  20.114  1.00  0.00     0.038 A 
HETATM    3  C   LIG     1      19.147  37.112  19.124  1.00  0.00     0.003 A 
HETATM    4  C   LIG     1      19.620  38.424  19.181  1.00  0.00     0.002 A 
HETATM    5  C   LIG     1      19.230  39.261  20.229  1.00  0.00     0.026 A 
HETATM    6  C   LIG     1      18.368  38.788  21.224  1.00  0.00     0.067 A 
HETATM    7 CL   LIG     1      17.897  39.861  22.534  1.00  0.00    -0.081 Cl
ENDROOT
BRANCH   1   8
HETATM    8  O   LIG     1      17.025  37.030  22.197  1.00  0.00    -0.334 OA
BRANCH   8   9
HETATM    9  C   LIG     1      17.431  36.469  23.446  1.00  0.00     0.222 C 
HETATM   10  C   LIG     1      16.991  35.008  23.500  1.00  0.00     0.051 C 
BRANCH   9  11
HETATM   11  C   LIG     1      16.815  37.226  24.591  1.00  0.00     0.170 C 
HETATM   12  O   LIG     1      15.875  38.036  24.371  1.00  0.00    -0.648 OA
BRANCH  11  13
HETATM   13  O   LIG     1      17.291  37.071  25.889  1.00  0.00    -0.774 OA
HETATM   14  H   LIG     1      17.320  36.160  26.334  1.00  0.00     0.167 HD
ENDBRANCH  11  13
ENDBRANCH   9  11
ENDBRANCH   8   9
ENDBRANCH   1   8
TORSDOF 4
ENDMDL
MODEL 5
REMARK VINA RESULT:      -6.1      2.680      3.393
REMARK  4 active torsions:
REMARK  status: ('A' for Active; 'I' for Inactive)
REMARK    1  A    between atoms: O_1  and  C_2 
REMARK    2  A    between atoms: C_2  and  C_3 
REMARK    3  A    between atoms: C_3  and  O_5 
REMARK    4  A    between atoms: O_5  and  C_6 
ROOT
HETATM    1  C   LIG     1      17.401  36.681  21.567  1.00  0.00     0.091 A 
HETATM    2  C   LIG     1      17.114  37.187  22.851  1.00  0.00     0.038 A 
HETATM    3  C   LIG     1      17.601  38.438  23.242  1.00  0.00     0.003 A 
HETATM    4  C   LIG     1      18.378  39.194  22.362  1.00  0.00     0.002 A 
HETATM    5  C   LIG     1      18.671  38.699  21.089  1.00  0.00     0.026 A 
HETATM    6  C   LIG     1      18.187  37.448  20.690  1.00  0.00     0.067 A 
HETATM    7 CL   LIG     1      18.568  36.852  19.083  1.00  0.00    -0.081 Cl
ENDROOT
BRANCH   1   8
HETATM    8  O   LIG     1      16.934  35.430  21.130  1.00  0.00    -0.334 OA
BRANCH   8   9
HETATM    9  C   LIG     1      15.668  35.185  20.514  1.00  0.00     0.222 C 
HETATM   10  C   LIG     1      14.604  36.022  21.219  1.00  0.00     0.051 C 
BRANCH   9  11
HETATM   11  C   LIG     1      15.309  33.726  20.607  1.00  0.00     0.170 C 
HETATM   12  O   LIG     1      15.947  32.881  19.924  1.00  0.00    -0.648 OA
BRANCH  11  13
HETATM   13  O   LIG     1      14.257  33.299  21.412  1.00  0.00    -0.774 OA
HETATM   14  H   LIG     1      14.243  32.367  21.808  1.00  0.00     0.167 HD
ENDBRANCH  11  13
ENDBRANCH   9  11
ENDBRANCH   8   9
ENDBRANCH   1   8
TORSDOF 4
ENDMDL
MODEL 6
REMARK VINA RESULT:      -6.1      2.837      3.600
REMARK  4 active torsions:
REMARK  status: ('A' for Active; 'I' for Inactive)
REMARK    1  A    between atoms: O_1  and  C_2 
REMARK    2  A    between atoms: C_2  and  C_3 
REMARK    3  A    between atoms: C_3  and  O_5 
REMARK    4  A    between atoms: O_5  and  C_6 
ROOT
HETATM    1  C   LIG     1      17.472  37.207  22.827  1.00  0.00     0.091 A 
HETATM    2  C   LIG     1      17.777  37.962  23.979  1.00  0.00     0.038 A 
HETATM    3  C   LIG     1      17.728  37.369  25.244  1.00  0.00     0.003 A 
HETATM    4  C   LIG     1      17.377  36.024  25.376  1.00  0.00     0.002 A 
HETATM    5  C   LIG     1      17.070  35.269  24.241  1.00  0.00     0.026 A 
HETATM    6  C   LIG     1      17.116  35.855  22.971  1.00  0.00     0.067 A 
HETATM    7 CL   LIG     1      16.729  34.881  21.561  1.00  0.00    -0.081 Cl
ENDROOT
BRANCH   1   8
HETATM    8  O   LIG     1      17.507  37.758  21.535  1.00  0.00    -0.334 OA
BRANCH   8   9
HETATM    9  C   LIG     1      18.681  38.200  20.852  1.00  0.00     0.222 C 
HETATM   10  C   LIG     1      18.663  39.724  20.767  1.00  0.00     0.051 C 
BRANCH   9  11
HETATM   11  C   LIG     1      18.737  37.616  19.466  1.00  0.00     0.170 C 
HETATM   12  O   LIG     1      18.709  36.366  19.313  1.00  0.00    -0.648 OA
BRANCH  11  13
HETATM   13  O   LIG     1      18.855  38.438  18.349  1.00  0.00    -0.774 OA
HETATM   14  H   LIG     1      19.564  39.161  18.300  1.00  0.00     0.167 HD
ENDBRANCH  11  13
ENDBRANCH   9  11
ENDBRANCH   8   9
ENDBRANCH   1   8
TORSDOF 4
ENDMDL
MODEL 7
REMARK VINA RESULT:      -6.0      5.762      8.885
REMARK  4 active torsions:
REMARK  status: ('A' for Active; 'I' for Inactive)
REMARK    1  A    between atoms: O_1  and  C_2 
REMARK    2  A    between atoms: C_2  and  C_3 
REMARK    3  A    between atoms: C_3  and  O_5 
REMARK    4  A    between atoms: O_5  and  C_6 
ROOT
HETATM    1  C   LIG     1      14.954  32.153  16.586  1.00  0.00     0.091 A 
HETATM    2  C   LIG     1      16.062  32.710  15.914  1.00  0.00     0.038 A 
HETATM    3  C   LIG     1      16.405  32.266  14.633  1.00  0.00     0.003 A 
HETATM    4  C   LIG     1      15.653  31.267  14.012  1.00  0.00     0.002 A 
HETATM    5  C   LIG     1      14.557  30.707  14.672  1.00  0.00     0.026 A 
HETATM    6  C   LIG     1      14.207  31.145  15.953  1.00  0.00     0.067 A 
HETATM    7 CL   LIG     1      12.821  30.426  16.759  1.00  0.00    -0.081 Cl
ENDROOT
BRANCH   1   8
HETATM    8  O   LIG     1      14.571  32.566  17.874  1.00  0.00    -0.334 OA
BRANCH   8   9
HETATM    9  C   LIG     1      15.344  32.401  19.064  1.00  0.00     0.222 C 
HETATM   10  C   LIG     1      14.785  31.225  19.859  1.00  0.00     0.051 C 
BRANCH   9  11
HETATM   11  C   LIG     1      15.296  33.649  19.902  1.00  0.00     0.170 C 
HETATM   12  O   LIG     1      15.966  34.659  19.559  1.00  0.00    -0.648 OA
BRANCH  11  13
HETATM   13  O   LIG     1      14.547  33.694  21.074  1.00  0.00    -0.774 OA
HETATM   14  H   LIG     1      14.762  34.354  21.812  1.00  0.00     0.167 HD
ENDBRANCH  11  13
ENDBRANCH   9  11
ENDBRANCH   8   9
ENDBRANCH   1   8
TORSDOF 4
ENDMDL
MODEL 8
REMARK VINA RESULT:      -6.0      1.512      2.221
REMARK  4 active torsions:
REMARK  status: ('A' for Active; 'I' for Inactive)
REMARK    1  A    between atoms: O_1  and  C_2 
REMARK    2  A    between atoms: C_2  and  C_3 
REMARK    3  A    between atoms: C_3  and  O_5 
REMARK    4  A    between atoms: O_5  and  C_6 
ROOT
HETATM    1  C   LIG     1      17.024  36.421  24.245  1.00  0.00     0.091 A 
HETATM    2  C   LIG     1      17.116  35.068  24.631  1.00  0.00     0.038 A 
HETATM    3  C   LIG     1      17.830  34.708  25.778  1.00  0.00     0.003 A 
HETATM    4  C   LIG     1      18.459  35.688  26.549  1.00  0.00     0.002 A 
HETATM    5  C   LIG     1      18.376  37.031  26.172  1.00  0.00     0.026 A 
HETATM    6  C   LIG     1      17.664  37.399  25.026  1.00  0.00     0.067 A 
HETATM    7 CL   LIG     1      17.573  39.095  24.578  1.00  0.00    -0.081 Cl
ENDROOT
BRANCH   1   8
HETATM    8  O   LIG     1      16.317  36.830  23.101  1.00  0.00    -0.334 OA
BRANCH   8   9
HETATM    9  C   LIG     1      16.507  36.319  21.781  1.00  0.00     0.222 C 
HETATM   10  C   LIG     1      16.774  34.819  21.863  1.00  0.00     0.051 C 
BRANCH   9  11
HETATM   11  C   LIG     1      17.667  37.004  21.111  1.00  0.00     0.170 C 
HETATM   12  O   LIG     1      17.961  38.188  21.426  1.00  0.00    -0.648 OA
BRANCH  11  13
HETATM   13  O   LIG     1      18.402  36.359  20.120  1.00  0.00    -0.774 OA
HETATM   14  H   LIG     1      18.260  35.377  19.914  1.00  0.00     0.167 HD
ENDBRANCH  11  13
ENDBRANCH   9  11
ENDBRANCH   8   9
ENDBRANCH   1   8
TORSDOF 4
ENDMDL
MODEL 9
REMARK VINA RESULT:      -5.9      5.598      8.851
REMARK  4 active torsions:
REMARK  status: ('A' for Active; 'I' for Inactive)
REMARK    1  A    between atoms: O_1  and  C_2 
REMARK    2  A    between atoms: C_2  and  C_3 
REMARK    3  A    between atoms: C_3  and  O_5 
REMARK    4  A    between atoms: O_5  and  C_6 
ROOT
HETATM    1  C   LIG     1      14.377  31.845  16.641  1.00  0.00     0.091 A 
HETATM    2  C   LIG     1      13.378  30.865  16.474  1.00  0.00     0.038 A 
HETATM    3  C   LIG     1      13.358  30.066  15.326  1.00  0.00     0.003 A 
HETATM    4  C   LIG     1      14.328  30.236  14.337  1.00  0.00     0.002 A 
HETATM    5  C   LIG     1      15.320  31.206  14.492  1.00  0.00     0.026 A 
HETATM    6  C   LIG     1      15.347  32.010  15.637  1.00  0.00     0.067 A 
HETATM    7 CL   LIG     1      16.608  33.221  15.807  1.00  0.00    -0.081 Cl
ENDROOT
BRANCH   1   8
HETATM    8  O   LIG     1      14.438  32.672  17.776  1.00  0.00    -0.334 OA
BRANCH   8   9
HETATM    9  C   LIG     1      15.286  32.467  18.908  1.00  0.00     0.222 C 
HETATM   10  C   LIG     1      14.762  31.279  19.710  1.00  0.00     0.051 C 
BRANCH   9  11
HETATM   11  C   LIG     1      15.312  33.694  19.777  1.00  0.00     0.170 C 
HETATM   12  O   LIG     1      16.014  34.684  19.441  1.00  0.00    -0.648 OA
BRANCH  11  13
HETATM   13  O   LIG     1      14.595  33.740  20.970  1.00  0.00    -0.774 OA
HETATM   14  H   LIG     1      15.004  34.120  21.816  1.00  0.00     0.167 HD
ENDBRANCH  11  13
ENDBRANCH   9  11
ENDBRANCH   8   9
ENDBRANCH   1   8
TORSDOF 4
ENDMDL
MODEL 10
REMARK VINA RESULT:      -5.8      3.546      4.801
REMARK  4 active torsions:
REMARK  status: ('A' for Active; 'I' for Inactive)
REMARK    1  A    between atoms: O_1  and  C_2 
REMARK    2  A    between atoms: C_2  and  C_3 
REMARK    3  A    between atoms: C_3  and  O_5 
REMARK    4  A    between atoms: O_5  and  C_6 
ROOT
HETATM    1  C   LIG     1      17.783  37.474  20.931  1.00  0.00     0.091 A 
HETATM    2  C   LIG     1      17.710  36.133  20.499  1.00  0.00     0.038 A 
HETATM    3  C   LIG     1      17.217  35.142  21.353  1.00  0.00     0.003 A 
HETATM    4  C   LIG     1      16.794  35.474  22.642  1.00  0.00     0.002 A 
HETATM    5  C   LIG     1      16.866  36.798  23.080  1.00  0.00     0.026 A 
HETATM    6  C   LIG     1      17.358  37.796  22.232  1.00  0.00     0.067 A 
HETATM    7 CL   LIG     1      17.433  39.454  22.807  1.00  0.00    -0.081 Cl
ENDROOT
BRANCH   1   8
HETATM    8  O   LIG     1      18.270  38.504  20.109  1.00  0.00    -0.334 OA
BRANCH   8   9
HETATM    9  C   LIG     1      19.126  38.329  18.978  1.00  0.00     0.222 C 
HETATM   10  C   LIG     1      20.543  38.748  19.360  1.00  0.00     0.051 C 
BRANCH   9  11
HETATM   11  C   LIG     1      18.647  39.160  17.820  1.00  0.00     0.170 C 
HETATM   12  O   LIG     1      18.300  40.356  18.009  1.00  0.00    -0.648 OA
BRANCH  11  13
HETATM   13  O   LIG     1      18.547  38.615  16.543  1.00  0.00    -0.774 OA
HETATM   14  H   LIG     1      18.319  39.191  15.741  1.00  0.00     0.167 HD
ENDBRANCH  11  13
ENDBRANCH   9  11
ENDBRANCH   8   9
ENDBRANCH   1   8
TORSDOF 4
ENDMDL
MODEL 11
REMARK VINA RESULT:      -5.6      3.159      3.940
REMARK  4 active torsions:
REMARK  status: ('A' for Active; 'I' for Inactive)
REMARK    1  A    between atoms: O_1  and  C_2 
REMARK    2  A    between atoms: C_2  and  C_3 
REMARK    3  A    between atoms: C_3  and  O_5 
REMARK    4  A    between atoms: O_5  and  C_6 
ROOT
HETATM    1  C   LIG     1      16.463  35.967  20.702  1.00  0.00     0.091 A 
HETATM    2  C   LIG     1      15.401  36.128  21.616  1.00  0.00     0.038 A 
HETATM    3  C   LIG     1      15.458  37.125  22.594  1.00  0.00     0.003 A 
HETATM    4  C   LIG     1      16.569  37.967  22.674  1.00  0.00     0.002 A 
HETATM    5  C   LIG     1      17.627  37.813  21.776  1.00  0.00     0.026 A 
HETATM    6  C   LIG     1      17.578  36.817  20.794  1.00  0.00     0.067 A 
HETATM    7 CL   LIG     1      18.922  36.647  19.675  1.00  0.00    -0.081 Cl
ENDROOT
BRANCH   1   8
HETATM    8  O   LIG     1      16.452  34.979  19.702  1.00  0.00    -0.334 OA
BRANCH   8   9
HETATM    9  C   LIG     1      15.333  34.160  19.357  1.00  0.00     0.222 C 
HETATM   10  C   LIG     1      15.537  32.768  19.950  1.00  0.00     0.051 C 
BRANCH   9  11
HETATM   11  C   LIG     1      15.194  34.058  17.863  1.00  0.00     0.170 C 
HETATM   12  O   LIG     1      15.992  34.685  17.116  1.00  0.00    -0.648 OA
BRANCH  11  13
HETATM   13  O   LIG     1      14.172  33.307  17.290  1.00  0.00    -0.774 OA
HETATM   14  H   LIG     1      13.398  33.751  16.809  1.00  0.00     0.167 HD
ENDBRANCH  11  13
ENDBRANCH   9  11
ENDBRANCH   8   9
ENDBRANCH   1   8
TORSDOF 4
ENDMDL
MODEL 12
REMARK VINA RESULT:      -5.5      3.441      4.885
REMARK  4 active torsions:
REMARK  status: ('A' for Active; 'I' for Inactive)
REMARK    1  A    between atoms: O_1  and  C_2 
REMARK    2  A    between atoms: C_2  and  C_3 
REMARK    3  A    between atoms: C_3  and  O_5 
REMARK    4  A    between atoms: O_5  and  C_6 
ROOT
HETATM    1  C   LIG     1      17.159  36.698  21.184  1.00  0.00     0.091 A 
HETATM    2  C   LIG     1      16.833  35.513  20.493  1.00  0.00     0.038 A 
HETATM    3  C   LIG     1      15.581  34.916  20.668  1.00  0.00     0.003 A 
HETATM    4  C   LIG     1      14.645  35.489  21.531  1.00  0.00     0.002 A 
HETATM    5  C   LIG     1      14.959  36.661  22.222  1.00  0.00     0.026 A 
HETATM    6  C   LIG     1      16.210  37.265  22.052  1.00  0.00     0.067 A 
HETATM    7 CL   LIG     1      16.578  38.741  22.931  1.00  0.00    -0.081 Cl
ENDROOT
BRANCH   1   8
HETATM    8  O   LIG     1      18.403  37.335  21.040  1.00  0.00    -0.334 OA
BRANCH   8   9
HETATM    9  C   LIG     1      19.009  37.704  19.800  1.00  0.00     0.222 C 
HETATM   10  C   LIG     1      20.115  36.705  19.471  1.00  0.00     0.051 C 
BRANCH   9  11
HETATM   11  C   LIG     1      19.588  39.090  19.888  1.00  0.00     0.170 C 
HETATM   12  O   LIG     1      20.583  39.398  19.179  1.00  0.00    -0.648 OA
BRANCH  11  13
HETATM   13  O   LIG     1      19.061  40.030  20.768  1.00  0.00    -0.774 OA
HETATM   14  H   LIG     1      19.395  40.104  21.722  1.00  0.00     0.167 HD
ENDBRANCH  11  13
ENDBRANCH   9  11
ENDBRANCH   8   9
ENDBRANCH   1   8
TORSDOF 4
ENDMDL
MODEL 13
REMARK VINA RESULT:      -5.5      2.595      5.077
REMARK  4 active torsions:
REMARK  status: ('A' for Active; 'I' for Inactive)
REMARK    1  A    between atoms: O_1  and  C_2 
REMARK    2  A    between atoms: C_2  and  C_3 
REMARK    3  A    between atoms: C_3  and  O_5 
REMARK    4  A    between atoms: O_5  and  C_6 
ROOT
HETATM    1  C   LIG     1      16.836  36.023  21.998  1.00  0.00     0.091 A 
HETATM    2  C   LIG     1      15.813  35.105  22.313  1.00  0.00     0.038 A 
HETATM    3  C   LIG     1      15.214  34.343  21.305  1.00  0.00     0.003 A 
HETATM    4  C   LIG     1      15.624  34.488  19.978  1.00  0.00     0.002 A 
HETATM    5  C   LIG     1      16.634  35.397  19.656  1.00  0.00     0.026 A 
HETATM    6  C   LIG     1      17.239  36.163  20.658  1.00  0.00     0.067 A 
HETATM    7 CL   LIG     1      18.509  37.297  20.225  1.00  0.00    -0.081 Cl
ENDROOT
BRANCH   1   8
HETATM    8  O   LIG     1      17.468  36.810  22.975  1.00  0.00    -0.334 OA
BRANCH   8   9
HETATM    9  C   LIG     1      16.868  37.899  23.680  1.00  0.00     0.222 C 
HETATM   10  C   LIG     1      17.018  39.170  22.850  1.00  0.00     0.051 C 
BRANCH   9  11
HETATM   11  C   LIG     1      17.526  38.087  25.020  1.00  0.00     0.170 C 
HETATM   12  O   LIG     1      16.903  38.670  25.947  1.00  0.00    -0.648 OA
BRANCH  11  13
HETATM   13  O   LIG     1      18.831  37.657  25.241  1.00  0.00    -0.774 OA
HETATM   14  H   LIG     1      19.248  36.927  24.674  1.00  0.00     0.167 HD
ENDBRANCH  11  13
ENDBRANCH   9  11
ENDBRANCH   8   9
ENDBRANCH   1   8
TORSDOF 4
ENDMDL
MODEL 14
REMARK VINA RESULT:      -5.5      6.184      9.056
REMARK  4 active torsions:
REMARK  status: ('A' for Active; 'I' for Inactive)
REMARK    1  A    between atoms: O_1  and  C_2 
REMARK    2  A    between atoms: C_2  and  C_3 
REMARK    3  A    between atoms: C_3  and  O_5 
REMARK    4  A    between atoms: O_5  and  C_6 
ROOT
HETATM    1  C   LIG     1      15.282  32.030  16.112  1.00  0.00     0.091 A 
HETATM    2  C   LIG     1      14.123  31.240  16.256  1.00  0.00     0.038 A 
HETATM    3  C   LIG     1      13.732  30.369  15.234  1.00  0.00     0.003 A 
HETATM    4  C   LIG     1      14.486  30.277  14.063  1.00  0.00     0.002 A 
HETATM    5  C   LIG     1      15.634  31.058  13.910  1.00  0.00     0.026 A 
HETATM    6  C   LIG     1      16.032  31.932  14.928  1.00  0.00     0.067 A 
HETATM    7 CL   LIG     1      17.482  32.900  14.710  1.00  0.00    -0.081 Cl
ENDROOT
BRANCH   1   8
HETATM    8  O   LIG     1      15.715  32.919  17.111  1.00  0.00    -0.334 OA
BRANCH   8   9
HETATM    9  C   LIG     1      14.971  33.289  18.273  1.00  0.00     0.222 C 
HETATM   10  C   LIG     1      15.457  34.651  18.760  1.00  0.00     0.051 C 
BRANCH   9  11
HETATM   11  C   LIG     1      15.150  32.267  19.362  1.00  0.00     0.170 C 
HETATM   12  O   LIG     1      16.308  31.974  19.760  1.00  0.00    -0.648 OA
BRANCH  11  13
HETATM   13  O   LIG     1      14.053  31.613  19.915  1.00  0.00    -0.774 OA
HETATM   14  H   LIG     1      13.156  31.598  19.443  1.00  0.00     0.167 HD
ENDBRANCH  11  13
ENDBRANCH   9  11
ENDBRANCH   8   9
ENDBRANCH   1   8
TORSDOF 4
ENDMDL
MODEL 15
REMARK VINA RESULT:      -5.3      8.917     10.141
REMARK  4 active torsions:
REMARK  status: ('A' for Active; 'I' for Inactive)
REMARK    1  A    between atoms: O_1  and  C_2 
REMARK    2  A    between atoms: C_2  and  C_3 
REMARK    3  A    between atoms: C_3  and  O_5 
REMARK    4  A    between atoms: O_5  and  C_6 
ROOT
HETATM    1  C   LIG     1      15.432  31.734  15.334  1.00  0.00     0.091 A 
HETATM    2  C   LIG     1      14.869  32.404  16.440  1.00  0.00     0.038 A 
HETATM    3  C   LIG     1      13.639  31.994  16.963  1.00  0.00     0.003 A 
HETATM    4  C   LIG     1      12.958  30.917  16.391  1.00  0.00     0.002 A 
HETATM    5  C   LIG     1      13.505  30.249  15.293  1.00  0.00     0.026 A 
HETATM    6  C   LIG     1      14.736  30.654  14.764  1.00  0.00     0.067 A 
HETATM    7 CL   LIG     1      15.402  29.794  13.385  1.00  0.00    -0.081 Cl
ENDROOT
BRANCH   1   8
HETATM    8  O   LIG     1      16.665  32.109  14.774  1.00  0.00    -0.334 OA
BRANCH   8   9
HETATM    9  C   LIG     1      16.850  33.104  13.766  1.00  0.00     0.222 C 
HETATM   10  C   LIG     1      17.681  32.512  12.631  1.00  0.00     0.051 C 
BRANCH   9  11
HETATM   11  C   LIG     1      17.553  34.307  14.334  1.00  0.00     0.170 C 
HETATM   12  O   LIG     1      18.571  34.769  13.753  1.00  0.00    -0.648 OA
BRANCH  11  13
HETATM   13  O   LIG     1      17.114  34.899  15.515  1.00  0.00    -0.774 OA
HETATM   14  H   LIG     1      17.544  34.678  16.406  1.00  0.00     0.167 HD
ENDBRANCH  11  13
ENDBRANCH   9  11
ENDBRANCH   8   9
ENDBRANCH   1   8
TORSDOF 4
ENDMDL
MODEL 16
REMARK VINA RESULT:      -5.3      9.323     10.607
REMARK  4 active torsions:
REMARK  status: ('A' for Active; 'I' for Inactive)
REMARK    1  A    between atoms: O_1  and  C_2 
REMARK    2  A    between atoms: C_2  and  C_3 
REMARK    3  A    between atoms: C_3  and  O_5 
REMARK    4  A    between atoms: O_5  and  C_6 
ROOT
HETATM    1  C   LIG     1      15.843  32.300  14.186  1.00  0.00     0.091 A 
HETATM    2  C   LIG     1      15.685  31.168  13.360  1.00  0.00     0.038 A 
HETATM    3  C   LIG     1      14.936  30.073  13.800  1.00  0.00     0.003 A 
HETATM    4  C   LIG     1      14.340  30.092  15.062  1.00  0.00     0.002 A 
HETATM    5  C   LIG     1      14.493  31.207  15.889  1.00  0.00     0.026 A 
HETATM    6  C   LIG     1      15.241  32.308  15.456  1.00  0.00     0.067 A 
HETATM    7 CL   LIG     1      15.415  33.699  16.515  1.00  0.00    -0.081 Cl
ENDROOT
BRANCH   1   8
HETATM    8  O   LIG     1      16.586  33.425  13.787  1.00  0.00    -0.334 OA
BRANCH   8   9
HETATM    9  C   LIG     1      17.813  33.393  13.055  1.00  0.00     0.222 C 
HETATM   10  C   LIG     1      18.978  33.430  14.040  1.00  0.00     0.051 C 
BRANCH   9  11
HETATM   11  C   LIG     1      17.901  34.569  12.121  1.00  0.00     0.170 C 
HETATM   12  O   LIG     1      18.981  34.810  11.520  1.00  0.00    -0.648 OA
BRANCH  11  13
HETATM   13  O   LIG     1      16.813  35.417  11.936  1.00  0.00    -0.774 OA
HETATM   14  H   LIG     1      16.131  35.247  11.206  1.00  0.00     0.167 HD
ENDBRANCH  11  13
ENDBRANCH   9  11
ENDBRANCH   8   9
ENDBRANCH   1   8
TORSDOF 4
ENDMDL
MODEL 17
REMARK VINA RESULT:      -5.3      6.678      9.303
REMARK  4 active torsions:
REMARK  status: ('A' for Active; 'I' for Inactive)
REMARK    1  A    between atoms: O_1  and  C_2 
REMARK    2  A    between atoms: C_2  and  C_3 
REMARK    3  A    between atoms: C_3  and  O_5 
REMARK    4  A    between atoms: O_5  and  C_6 
ROOT
HETATM    1  C   LIG     1      16.422  32.457  15.603  1.00  0.00     0.091 A 
HETATM    2  C   LIG     1      17.424  33.366  15.203  1.00  0.00     0.038 A 
HETATM    3  C   LIG     1      17.721  33.536  13.848  1.00  0.00     0.003 A 
HETATM    4  C   LIG     1      17.028  32.806  12.880  1.00  0.00     0.002 A 
HETATM    5  C   LIG     1      16.037  31.901  13.267  1.00  0.00     0.026 A 
HETATM    6  C   LIG     1      15.734  31.724  14.621  1.00  0.00     0.067 A 
HETATM    7 CL   LIG     1      14.480  30.582  15.078  1.00  0.00    -0.081 Cl
ENDROOT
BRANCH   1   8
HETATM    8  O   LIG     1      16.088  32.251  16.953  1.00  0.00    -0.334 OA
BRANCH   8   9
HETATM    9  C   LIG     1      14.961  32.817  17.625  1.00  0.00     0.222 C 
HETATM   10  C   LIG     1      14.923  34.318  17.352  1.00  0.00     0.051 C 
BRANCH   9  11
HETATM   11  C   LIG     1      15.054  32.574  19.107  1.00  0.00     0.170 C 
HETATM   12  O   LIG     1      15.803  33.299  19.814  1.00  0.00    -0.648 OA
BRANCH  11  13
HETATM   13  O   LIG     1      14.348  31.534  19.705  1.00  0.00    -0.774 OA
HETATM   14  H   LIG     1      13.586  31.069  19.224  1.00  0.00     0.167 HD
ENDBRANCH  11  13
ENDBRANCH   9  11
ENDBRANCH   8   9
ENDBRANCH   1   8
TORSDOF 4
ENDMDL
MODEL 18
REMARK VINA RESULT:      -5.2      7.046      9.454
REMARK  4 active torsions:
REMARK  status: ('A' for Active; 'I' for Inactive)
REMARK    1  A    between atoms: O_1  and  C_2 
REMARK    2  A    between atoms: C_2  and  C_3 
REMARK    3  A    between atoms: C_3  and  O_5 
REMARK    4  A    between atoms: O_5  and  C_6 
ROOT
HETATM    1  C   LIG     1      16.450  32.625  15.560  1.00  0.00     0.091 A 
HETATM    2  C   LIG     1      17.270  33.765  15.431  1.00  0.00     0.038 A 
HETATM    3  C   LIG     1      17.694  34.189  14.168  1.00  0.00     0.003 A 
HETATM    4  C   LIG     1      17.309  33.486  13.025  1.00  0.00     0.002 A 
HETATM    5  C   LIG     1      16.499  32.354  13.143  1.00  0.00     0.026 A 
HETATM    6  C   LIG     1      16.071  31.922  14.403  1.00  0.00     0.067 A 
HETATM    7 CL   LIG     1      15.050  30.498  14.522  1.00  0.00    -0.081 Cl
ENDROOT
BRANCH   1   8
HETATM    8  O   LIG     1      15.999  32.160  16.807  1.00  0.00    -0.334 OA
BRANCH   8   9
HETATM    9  C   LIG     1      14.935  32.731  17.571  1.00  0.00     0.222 C 
HETATM   10  C   LIG     1      15.312  32.696  19.049  1.00  0.00     0.051 C 
BRANCH   9  11
HETATM   11  C   LIG     1      13.659  31.964  17.355  1.00  0.00     0.170 C 
HETATM   12  O   LIG     1      13.637  30.719  17.547  1.00  0.00    -0.648 OA
BRANCH  11  13
HETATM   13  O   LIG     1      12.506  32.605  16.911  1.00  0.00    -0.774 OA
HETATM   14  H   LIG     1      11.598  32.160  16.974  1.00  0.00     0.167 HD
ENDBRANCH  11  13
ENDBRANCH   9  11
ENDBRANCH   8   9
ENDBRANCH   1   8
TORSDOF 4
ENDMDL
MODEL 19
REMARK VINA RESULT:      -5.1      4.182      6.484
REMARK  4 active torsions:
REMARK  status: ('A' for Active; 'I' for Inactive)
REMARK    1  A    between atoms: O_1  and  C_2 
REMARK    2  A    between atoms: C_2  and  C_3 
REMARK    3  A    between atoms: C_3  and  O_5 
REMARK    4  A    between atoms: O_5  and  C_6 
ROOT
HETATM    1  C   LIG     1      15.475  33.523  19.196  1.00  0.00     0.091 A 
HETATM    2  C   LIG     1      15.339  32.529  20.188  1.00  0.00     0.038 A 
HETATM    3  C   LIG     1      14.748  31.301  19.879  1.00  0.00     0.003 A 
HETATM    4  C   LIG     1      14.286  31.050  18.585  1.00  0.00     0.002 A 
HETATM    5  C   LIG     1      14.413  32.029  17.597  1.00  0.00     0.026 A 
HETATM    6  C   LIG     1      15.004  33.261  17.898  1.00  0.00     0.067 A 
HETATM    7 CL   LIG     1      15.154  34.473  16.635  1.00  0.00    -0.081 Cl
ENDROOT
BRANCH   1   8
HETATM    8  O   LIG     1      16.063  34.772  19.458  1.00  0.00    -0.334 OA
BRANCH   8   9
HETATM    9  C   LIG     1      16.373  35.289  20.754  1.00  0.00     0.222 C 
HETATM   10  C   LIG     1      15.109  35.887  21.365  1.00  0.00     0.051 C 
BRANCH   9  11
HETATM   11  C   LIG     1      17.439  36.346  20.660  1.00  0.00     0.170 C 
HETATM   12  O   LIG     1      17.553  37.203  21.575  1.00  0.00    -0.648 OA
BRANCH  11  13
HETATM   13  O   LIG     1      18.284  36.411  19.555  1.00  0.00    -0.774 OA
HETATM   14  H   LIG     1      19.135  36.961  19.575  1.00  0.00     0.167 HD
ENDBRANCH  11  13
ENDBRANCH   9  11
ENDBRANCH   8   9
ENDBRANCH   1   8
TORSDOF 4
ENDMDL
MODEL 20
REMARK VINA RESULT:      -4.9      8.759     11.370
REMARK  4 active torsions:
REMARK  status: ('A' for Active; 'I' for Inactive)
REMARK    1  A    between atoms: O_1  and  C_2 
REMARK    2  A    between atoms: C_2  and  C_3 
REMARK    3  A    between atoms: C_3  and  O_5 
REMARK    4  A    between atoms: O_5  and  C_6 
ROOT
HETATM    1  C   LIG     1      18.985  34.226  12.655  1.00  0.00     0.091 A 
HETATM    2  C   LIG     1      20.265  33.643  12.761  1.00  0.00     0.038 A 
HETATM    3  C   LIG     1      21.127  33.631  11.660  1.00  0.00     0.003 A 
HETATM    4  C   LIG     1      20.726  34.196  10.448  1.00  0.00     0.002 A 
HETATM    5  C   LIG     1      19.460  34.774  10.334  1.00  0.00     0.026 A 
HETATM    6  C   LIG     1      18.590  34.789  11.430  1.00  0.00     0.067 A 
HETATM    7 CL   LIG     1      17.005  35.525  11.258  1.00  0.00    -0.081 Cl
ENDROOT
BRANCH   1   8
HETATM    8  O   LIG     1      18.084  34.262  13.733  1.00  0.00    -0.334 OA
BRANCH   8   9
HETATM    9  C   LIG     1      17.478  33.123  14.348  1.00  0.00     0.222 C 
HETATM   10  C   LIG     1      16.507  32.484  13.359  1.00  0.00     0.051 C 
BRANCH   9  11
HETATM   11  C   LIG     1      16.740  33.527  15.595  1.00  0.00     0.170 C 
HETATM   12  O   LIG     1      16.271  32.641  16.358  1.00  0.00    -0.648 OA
BRANCH  11  13
HETATM   13  O   LIG     1      16.538  34.869  15.903  1.00  0.00    -0.774 OA
HETATM   14  H   LIG     1      17.017  35.309  16.680  1.00  0.00     0.167 HD
ENDBRANCH  11  13
ENDBRANCH   9  11
ENDBRANCH   8   9
ENDBRANCH   1   8
TORSDOF 4
ENDMDL
