REMARK  4 active torsions:
REMARK  status: ('A' for Active; 'I' for Inactive)
REMARK    1  A    between atoms: O_1  and  C_2 
REMARK    2  A    between atoms: C_2  and  C_3 
REMARK    3  A    between atoms: C_3  and  O_5 
REMARK    4  A    between atoms: O_5  and  C_6 
ROOT
HETATM    1  C   LIG     1       0.651  -0.422  -0.146  1.00  0.00     0.091 A 
HETATM    2  C   LIG     1       1.200   0.432   0.833  1.00  0.00     0.038 A 
HETATM    3  C   LIG     1       2.579   0.656   0.880  1.00  0.00     0.003 A 
HETATM    4  C   LIG     1       3.423   0.034  -0.042  1.00  0.00     0.002 A 
HETATM    5  C   LIG     1       2.889  -0.816  -1.013  1.00  0.00     0.026 A 
HETATM    6  C   LIG     1       1.510  -1.046  -1.067  1.00  0.00     0.067 A 
HETATM    7 CL   LIG     1       0.865  -2.117  -2.301  1.00  0.00    -0.081 Cl
ENDROOT
BRANCH   1   8
HETATM    8  O   LIG     1      -0.728  -0.678  -0.233  1.00  0.00    -0.334 OA
BRANCH   8   9
HETATM    9  C   LIG     1      -1.740  -0.057   0.562  1.00  0.00     0.222 C 
HETATM   10  C   LIG     1      -3.070  -0.762   0.311  1.00  0.00     0.051 C 
BRANCH   9  11
HETATM   11  C   LIG     1      -1.865   1.401   0.213  1.00  0.00     0.170 C 
HETATM   12  O   LIG     1      -2.012   2.253   1.129  1.00  0.00    -0.648 OA
BRANCH  11  13
HETATM   13  O   LIG     1      -1.855   1.821  -1.114  1.00  0.00    -0.774 OA
HETATM   14  H   LIG     1      -1.756   1.159  -1.875  1.00  0.00     0.167 HD
ENDBRANCH  11  13
ENDBRANCH   9  11
ENDBRANCH   8   9
ENDBRANCH   1   8
TORSDOF 4
