REMARK  5 active torsions:
REMARK  status: ('A' for Active; 'I' for Inactive)
REMARK    1  A    between atoms: O_1  and  C_2 
REMARK    2  A    between atoms: C_2  and  C_3 
REMARK    3  A    between atoms: C_2  and  C_10 
REMARK    4  A    between atoms: C_2  and  C_17 
REMARK    5  A    between atoms: C_17  and  N_18 
ROOT
HETATM    1  C   LIG     1       0.558   0.475   0.358  1.00  0.00     0.133 C 
ENDROOT
BRANCH   1   2
HETATM    2  O   LIG     1       1.474   0.604   1.424  1.00  0.00    -0.378 OA
HETATM    3  H   LIG     1       0.980   0.939   2.220  1.00  0.00     0.211 HD
ENDBRANCH   1   2
BRANCH   1   4
HETATM    4  C   LIG     1      -0.321  -0.777   0.564  1.00  0.00    -0.018 A 
HETATM    5  C   LIG     1      -1.180  -1.222  -0.467  1.00  0.00     0.013 A 
HETATM    6  C   LIG     1      -1.953  -2.375  -0.310  1.00  0.00     0.043 A 
HETATM    7  C   LIG     1      -1.881  -3.111   0.873  1.00  0.00     0.116 A 
HETATM    8  C   LIG     1      -1.035  -2.694   1.901  1.00  0.00     0.043 A 
HETATM    9  F   LIG     1      -2.631  -4.230   1.022  1.00  0.00    -0.206 F 
HETATM   10  C   LIG     1      -0.259  -1.541   1.751  1.00  0.00     0.013 A 
ENDBRANCH   1   4
BRANCH   1  11
HETATM   11  C   LIG     1      -0.260   1.785   0.254  1.00  0.00     0.021 A 
HETATM   12  C   LIG     1      -1.673   1.812   0.350  1.00  0.00     0.013 A 
HETATM   13  C   LIG     1      -2.378   3.015   0.253  1.00  0.00     0.001 A 
HETATM   14  C   LIG     1      -1.695   4.217   0.086  1.00  0.00     0.003 A 
HETATM   15  C   LIG     1      -0.303   4.224   0.034  1.00  0.00     0.043 A 
HETATM   16  C   LIG     1       0.413   3.026   0.130  1.00  0.00     0.126 A 
HETATM   17  F   LIG     1       1.768   3.094   0.141  1.00  0.00    -0.205 F 
ENDBRANCH   1  11
BRANCH   1  18
HETATM   18  C   LIG     1       1.396   0.284  -0.940  1.00  0.00     0.200 C 
BRANCH  18  19
HETATM   19  N   LIG     1       2.072  -1.014  -0.959  1.00  0.00    -0.259 N 
HETATM   20  C   LIG     1       1.872  -2.015  -1.832  1.00  0.00     0.230 A 
HETATM   21  N   LIG     1       2.670  -3.065  -1.557  1.00  0.00    -0.234 NA
HETATM   22  C   LIG     1       3.359  -2.633  -0.477  1.00  0.00     0.256 A 
HETATM   23  N   LIG     1       3.007  -1.387  -0.105  1.00  0.00    -0.165 NA
ENDBRANCH  18  19
ENDBRANCH   1  18
TORSDOF 5
