MODEL 1
REMARK VINA RESULT:      -9.5      0.000      0.000
REMARK  5 active torsions:
REMARK  status: ('A' for Active; 'I' for Inactive)
REMARK    1  A    between atoms: O_1  and  C_2 
REMARK    2  A    between atoms: C_2  and  C_3 
REMARK    3  A    between atoms: C_2  and  C_10 
REMARK    4  A    between atoms: C_2  and  C_17 
REMARK    5  A    between atoms: C_17  and  N_18 
ROOT
HETATM    1  C   LIG     1      16.814  36.197  22.132  1.00  0.00     0.133 C 
ENDROOT
BRANCH   1   2
HETATM    2  O   LIG     1      15.474  36.579  21.909  1.00  0.00    -0.378 OA
HETATM    3  H   LIG     1      15.465  37.532  21.624  1.00  0.00     0.211 HD
ENDBRANCH   1   2
BRANCH   1   4
HETATM    4  C   LIG     1      17.756  37.020  21.228  1.00  0.00    -0.018 A 
HETATM    5  C   LIG     1      17.799  38.429  21.338  1.00  0.00     0.013 A 
HETATM    6  C   LIG     1      18.674  39.185  20.554  1.00  0.00     0.043 A 
HETATM    7  C   LIG     1      19.528  38.553  19.650  1.00  0.00     0.116 A 
HETATM    8  C   LIG     1      19.507  37.163  19.529  1.00  0.00     0.043 A 
HETATM    9  F   LIG     1      20.376  39.288  18.891  1.00  0.00    -0.206 F 
HETATM   10  C   LIG     1      18.634  36.400  20.310  1.00  0.00     0.013 A 
ENDBRANCH   1   4
BRANCH   1  11
HETATM   11  C   LIG     1      17.124  36.354  23.640  1.00  0.00     0.021 A 
HETATM   12  C   LIG     1      17.543  35.270  24.450  1.00  0.00     0.013 A 
HETATM   13  C   LIG     1      17.815  35.450  25.809  1.00  0.00     0.001 A 
HETATM   14  C   LIG     1      17.705  36.713  26.385  1.00  0.00     0.003 A 
HETATM   15  C   LIG     1      17.339  37.805  25.602  1.00  0.00     0.043 A 
HETATM   16  C   LIG     1      17.064  37.636  24.240  1.00  0.00     0.126 A 
HETATM   17  F   LIG     1      16.778  38.742  23.508  1.00  0.00    -0.205 F 
ENDBRANCH   1  11
BRANCH   1  18
HETATM   18  C   LIG     1      16.931  34.697  21.733  1.00  0.00     0.200 C 
BRANCH  18  19
HETATM   19  N   LIG     1      16.176  34.403  20.514  1.00  0.00    -0.259 N 
HETATM   20  C   LIG     1      15.521  33.266  20.225  1.00  0.00     0.230 A 
HETATM   21  N   LIG     1      14.930  33.340  19.017  1.00  0.00    -0.234 NA
HETATM   22  C   LIG     1      15.263  34.584  18.605  1.00  0.00     0.256 A 
HETATM   23  N   LIG     1      16.018  35.241  19.507  1.00  0.00    -0.165 NA
ENDBRANCH  18  19
ENDBRANCH   1  18
TORSDOF 5
ENDMDL
MODEL 2
REMARK VINA RESULT:      -8.7      1.238      2.020
REMARK  5 active torsions:
REMARK  status: ('A' for Active; 'I' for Inactive)
REMARK    1  A    between atoms: O_1  and  C_2 
REMARK    2  A    between atoms: C_2  and  C_3 
REMARK    3  A    between atoms: C_2  and  C_10 
REMARK    4  A    between atoms: C_2  and  C_17 
REMARK    5  A    between atoms: C_17  and  N_18 
ROOT
HETATM    1  C   LIG     1      16.967  36.494  22.226  1.00  0.00     0.133 C 
ENDROOT
BRANCH   1   2
HETATM    2  O   LIG     1      15.597  36.685  21.948  1.00  0.00    -0.378 OA
HETATM    3  H   LIG     1      15.451  37.649  21.748  1.00  0.00     0.211 HD
ENDBRANCH   1   2
BRANCH   1   4
HETATM    4  C   LIG     1      17.826  37.317  21.242  1.00  0.00    -0.018 A 
HETATM    5  C   LIG     1      18.421  36.693  20.121  1.00  0.00     0.013 A 
HETATM    6  C   LIG     1      19.169  37.431  19.201  1.00  0.00     0.043 A 
HETATM    7  C   LIG     1      19.334  38.806  19.374  1.00  0.00     0.116 A 
HETATM    8  C   LIG     1      18.750  39.444  20.469  1.00  0.00     0.043 A 
HETATM    9  F   LIG     1      20.059  39.520  18.479  1.00  0.00    -0.206 F 
HETATM   10  C   LIG     1      18.001  38.711  21.394  1.00  0.00     0.013 A 
ENDBRANCH   1   4
BRANCH   1  11
HETATM   11  C   LIG     1      17.221  36.857  23.709  1.00  0.00     0.021 A 
HETATM   12  C   LIG     1      17.155  38.188  24.191  1.00  0.00     0.013 A 
HETATM   13  C   LIG     1      17.389  38.477  25.538  1.00  0.00     0.001 A 
HETATM   14  C   LIG     1      17.666  37.452  26.438  1.00  0.00     0.003 A 
HETATM   15  C   LIG     1      17.692  36.130  26.000  1.00  0.00     0.043 A 
HETATM   16  C   LIG     1      17.460  35.828  24.653  1.00  0.00     0.126 A 
HETATM   17  F   LIG     1      17.430  34.521  24.290  1.00  0.00    -0.205 F 
ENDBRANCH   1  11
BRANCH   1  18
HETATM   18  C   LIG     1      17.270  34.984  22.004  1.00  0.00     0.200 C 
BRANCH  18  19
HETATM   19  N   LIG     1      16.120  34.282  21.430  1.00  0.00    -0.259 N 
HETATM   20  C   LIG     1      16.029  33.755  20.198  1.00  0.00     0.230 A 
HETATM   21  N   LIG     1      14.828  33.178  20.005  1.00  0.00    -0.234 NA
HETATM   22  C   LIG     1      14.210  33.385  21.190  1.00  0.00     0.256 A 
HETATM   23  N   LIG     1      14.986  34.053  22.066  1.00  0.00    -0.165 NA
ENDBRANCH  18  19
ENDBRANCH   1  18
TORSDOF 5
ENDMDL
MODEL 3
REMARK VINA RESULT:      -8.5      2.765      5.345
REMARK  5 active torsions:
REMARK  status: ('A' for Active; 'I' for Inactive)
REMARK    1  A    between atoms: O_1  and  C_2 
REMARK    2  A    between atoms: C_2  and  C_3 
REMARK    3  A    between atoms: C_2  and  C_10 
REMARK    4  A    between atoms: C_2  and  C_17 
REMARK    5  A    between atoms: C_17  and  N_18 
ROOT
HETATM    1  C   LIG     1      16.602  36.037  21.591  1.00  0.00     0.133 C 
ENDROOT
BRANCH   1   2
HETATM    2  O   LIG     1      15.534  36.807  22.099  1.00  0.00    -0.378 OA
HETATM    3  H   LIG     1      14.681  36.366  21.839  1.00  0.00     0.211 HD
ENDBRANCH   1   2
BRANCH   1   4
HETATM    4  C   LIG     1      16.075  35.016  20.560  1.00  0.00    -0.018 A 
HETATM    5  C   LIG     1      15.801  33.685  20.951  1.00  0.00     0.013 A 
HETATM    6  C   LIG     1      15.288  32.760  20.038  1.00  0.00     0.043 A 
HETATM    7  C   LIG     1      15.031  33.144  18.721  1.00  0.00     0.116 A 
HETATM    8  C   LIG     1      15.287  34.454  18.316  1.00  0.00     0.043 A 
HETATM    9  F   LIG     1      14.532  32.244  17.839  1.00  0.00    -0.206 F 
HETATM   10  C   LIG     1      15.801  35.384  19.223  1.00  0.00     0.013 A 
ENDBRANCH   1   4
BRANCH   1  11
HETATM   11  C   LIG     1      17.666  36.999  21.009  1.00  0.00     0.021 A 
HETATM   12  C   LIG     1      18.686  36.565  20.128  1.00  0.00     0.013 A 
HETATM   13  C   LIG     1      19.629  37.464  19.621  1.00  0.00     0.001 A 
HETATM   14  C   LIG     1      19.563  38.814  19.956  1.00  0.00     0.003 A 
HETATM   15  C   LIG     1      18.543  39.275  20.785  1.00  0.00     0.043 A 
HETATM   16  C   LIG     1      17.594  38.384  21.298  1.00  0.00     0.126 A 
HETATM   17  F   LIG     1      16.583  38.894  22.046  1.00  0.00    -0.205 F 
ENDBRANCH   1  11
BRANCH   1  18
HETATM   18  C   LIG     1      17.211  35.258  22.793  1.00  0.00     0.200 C 
BRANCH  18  19
HETATM   19  N   LIG     1      17.276  36.088  23.997  1.00  0.00    -0.259 N 
HETATM   20  C   LIG     1      17.549  35.677  25.246  1.00  0.00     0.230 A 
HETATM   21  N   LIG     1      17.530  36.710  26.111  1.00  0.00    -0.234 NA
HETATM   22  C   LIG     1      17.236  37.758  25.308  1.00  0.00     0.256 A 
HETATM   23  N   LIG     1      17.082  37.393  24.020  1.00  0.00    -0.165 NA
ENDBRANCH  18  19
ENDBRANCH   1  18
TORSDOF 5
ENDMDL
MODEL 4
REMARK VINA RESULT:      -7.5      5.443      8.733
REMARK  5 active torsions:
REMARK  status: ('A' for Active; 'I' for Inactive)
REMARK    1  A    between atoms: O_1  and  C_2 
REMARK    2  A    between atoms: C_2  and  C_3 
REMARK    3  A    between atoms: C_2  and  C_10 
REMARK    4  A    between atoms: C_2  and  C_17 
REMARK    5  A    between atoms: C_17  and  N_18 
ROOT
HETATM    1  C   LIG     1      15.707  32.643  15.956  1.00  0.00     0.133 C 
ENDROOT
BRANCH   1   2
HETATM    2  O   LIG     1      15.369  33.798  15.217  1.00  0.00    -0.378 OA
HETATM    3  H   LIG     1      16.150  34.044  14.651  1.00  0.00     0.211 HD
ENDBRANCH   1   2
BRANCH   1   4
HETATM    4  C   LIG     1      15.602  32.934  17.468  1.00  0.00    -0.018 A 
HETATM    5  C   LIG     1      15.486  34.265  17.932  1.00  0.00     0.013 A 
HETATM    6  C   LIG     1      15.352  34.541  19.294  1.00  0.00     0.043 A 
HETATM    7  C   LIG     1      15.323  33.499  20.221  1.00  0.00     0.116 A 
HETATM    8  C   LIG     1      15.429  32.178  19.785  1.00  0.00     0.043 A 
HETATM    9  F   LIG     1      15.191  33.770  21.542  1.00  0.00    -0.206 F 
HETATM   10  C   LIG     1      15.564  31.894  18.423  1.00  0.00     0.013 A 
ENDBRANCH   1   4
BRANCH   1  11
HETATM   11  C   LIG     1      14.795  31.481  15.492  1.00  0.00     0.021 A 
HETATM   12  C   LIG     1      15.266  30.417  14.686  1.00  0.00     0.013 A 
HETATM   13  C   LIG     1      14.413  29.383  14.288  1.00  0.00     0.001 A 
HETATM   14  C   LIG     1      13.084  29.371  14.704  1.00  0.00     0.003 A 
HETATM   15  C   LIG     1      12.607  30.382  15.535  1.00  0.00     0.043 A 
HETATM   16  C   LIG     1      13.451  31.421  15.939  1.00  0.00     0.126 A 
HETATM   17  F   LIG     1      12.956  32.344  16.802  1.00  0.00    -0.205 F 
ENDBRANCH   1  11
BRANCH   1  18
HETATM   18  C   LIG     1      17.188  32.305  15.618  1.00  0.00     0.200 C 
BRANCH  18  19
HETATM   19  N   LIG     1      17.638  33.000  14.411  1.00  0.00    -0.259 N 
HETATM   20  C   LIG     1      18.291  34.172  14.351  1.00  0.00     0.230 A 
HETATM   21  N   LIG     1      18.556  34.515  13.075  1.00  0.00    -0.234 NA
HETATM   22  C   LIG     1      18.029  33.483  12.380  1.00  0.00     0.256 A 
HETATM   23  N   LIG     1      17.471  32.553  13.180  1.00  0.00    -0.165 NA
ENDBRANCH  18  19
ENDBRANCH   1  18
TORSDOF 5
ENDMDL
MODEL 5
REMARK VINA RESULT:      -7.0      2.431      5.488
REMARK  5 active torsions:
REMARK  status: ('A' for Active; 'I' for Inactive)
REMARK    1  A    between atoms: O_1  and  C_2 
REMARK    2  A    between atoms: C_2  and  C_3 
REMARK    3  A    between atoms: C_2  and  C_10 
REMARK    4  A    between atoms: C_2  and  C_17 
REMARK    5  A    between atoms: C_17  and  N_18 
ROOT
HETATM    1  C   LIG     1      16.859  36.253  21.635  1.00  0.00     0.133 C 
ENDROOT
BRANCH   1   2
HETATM    2  O   LIG     1      16.127  37.420  21.327  1.00  0.00    -0.378 OA
HETATM    3  H   LIG     1      15.966  37.919  22.172  1.00  0.00     0.211 HD
ENDBRANCH   1   2
BRANCH   1   4
HETATM    4  C   LIG     1      17.130  36.184  23.153  1.00  0.00    -0.018 A 
HETATM    5  C   LIG     1      17.162  37.367  23.926  1.00  0.00     0.013 A 
HETATM    6  C   LIG     1      17.368  37.318  25.307  1.00  0.00     0.043 A 
HETATM    7  C   LIG     1      17.539  36.090  25.946  1.00  0.00     0.116 A 
HETATM    8  C   LIG     1      17.503  34.909  25.204  1.00  0.00     0.043 A 
HETATM    9  F   LIG     1      17.737  36.045  27.286  1.00  0.00    -0.206 F 
HETATM   10  C   LIG     1      17.298  34.951  23.822  1.00  0.00     0.013 A 
ENDBRANCH   1   4
BRANCH   1  11
HETATM   11  C   LIG     1      16.079  35.029  21.098  1.00  0.00     0.021 A 
HETATM   12  C   LIG     1      15.295  34.197  21.934  1.00  0.00     0.013 A 
HETATM   13  C   LIG     1      14.602  33.100  21.412  1.00  0.00     0.001 A 
HETATM   14  C   LIG     1      14.652  32.823  20.048  1.00  0.00     0.003 A 
HETATM   15  C   LIG     1      15.379  33.652  19.197  1.00  0.00     0.043 A 
HETATM   16  C   LIG     1      16.076  34.752  19.708  1.00  0.00     0.126 A 
HETATM   17  F   LIG     1      16.713  35.566  18.829  1.00  0.00    -0.205 F 
ENDBRANCH   1  11
BRANCH   1  18
HETATM   18  C   LIG     1      18.223  36.364  20.893  1.00  0.00     0.200 C 
BRANCH  18  19
HETATM   19  N   LIG     1      18.518  37.745  20.510  1.00  0.00    -0.259 N 
HETATM   20  C   LIG     1      18.755  38.206  19.271  1.00  0.00     0.230 A 
HETATM   21  N   LIG     1      18.986  39.533  19.283  1.00  0.00    -0.234 NA
HETATM   22  C   LIG     1      18.867  39.838  20.594  1.00  0.00     0.256 A 
HETATM   23  N   LIG     1      18.580  38.761  21.351  1.00  0.00    -0.165 NA
ENDBRANCH  18  19
ENDBRANCH   1  18
TORSDOF 5
ENDMDL
MODEL 6
REMARK VINA RESULT:      -6.8      6.176      9.043
REMARK  5 active torsions:
REMARK  status: ('A' for Active; 'I' for Inactive)
REMARK    1  A    between atoms: O_1  and  C_2 
REMARK    2  A    between atoms: C_2  and  C_3 
REMARK    3  A    between atoms: C_2  and  C_10 
REMARK    4  A    between atoms: C_2  and  C_17 
REMARK    5  A    between atoms: C_17  and  N_18 
ROOT
HETATM    1  C   LIG     1      16.044  32.102  15.563  1.00  0.00     0.133 C 
ENDROOT
BRANCH   1   2
HETATM    2  O   LIG     1      17.387  31.669  15.531  1.00  0.00    -0.378 OA
HETATM    3  H   LIG     1      17.799  31.998  14.687  1.00  0.00     0.211 HD
ENDBRANCH   1   2
BRANCH   1   4
HETATM    4  C   LIG     1      15.108  30.960  15.112  1.00  0.00    -0.018 A 
HETATM    5  C   LIG     1      13.750  30.956  15.503  1.00  0.00     0.013 A 
HETATM    6  C   LIG     1      12.881  29.950  15.072  1.00  0.00     0.043 A 
HETATM    7  C   LIG     1      13.347  28.933  14.238  1.00  0.00     0.116 A 
HETATM    8  C   LIG     1      14.682  28.922  13.834  1.00  0.00     0.043 A 
HETATM    9  F   LIG     1      12.502  27.960  13.819  1.00  0.00    -0.206 F 
HETATM   10  C   LIG     1      15.557  29.925  14.262  1.00  0.00     0.013 A 
ENDBRANCH   1   4
BRANCH   1  11
HETATM   11  C   LIG     1      15.731  32.621  16.988  1.00  0.00     0.021 A 
HETATM   12  C   LIG     1      15.631  31.761  18.109  1.00  0.00     0.013 A 
HETATM   13  C   LIG     1      15.349  32.266  19.381  1.00  0.00     0.001 A 
HETATM   14  C   LIG     1      15.187  33.636  19.572  1.00  0.00     0.003 A 
HETATM   15  C   LIG     1      15.325  34.509  18.495  1.00  0.00     0.043 A 
HETATM   16  C   LIG     1      15.607  34.014  17.217  1.00  0.00     0.126 A 
HETATM   17  F   LIG     1      15.798  34.910  16.216  1.00  0.00    -0.205 F 
ENDBRANCH   1  11
BRANCH   1  18
HETATM   18  C   LIG     1      15.920  33.275  14.547  1.00  0.00     0.200 C 
BRANCH  18  19
HETATM   19  N   LIG     1      17.145  33.440  13.763  1.00  0.00    -0.259 N 
HETATM   20  C   LIG     1      18.041  34.435  13.868  1.00  0.00     0.230 A 
HETATM   21  N   LIG     1      19.053  34.270  12.993  1.00  0.00    -0.234 NA
HETATM   22  C   LIG     1      18.713  33.121  12.367  1.00  0.00     0.256 A 
HETATM   23  N   LIG     1      17.557  32.605  12.828  1.00  0.00    -0.165 NA
ENDBRANCH  18  19
ENDBRANCH   1  18
TORSDOF 5
ENDMDL
MODEL 7
REMARK VINA RESULT:      -6.7     16.594     18.982
REMARK  5 active torsions:
REMARK  status: ('A' for Active; 'I' for Inactive)
REMARK    1  A    between atoms: O_1  and  C_2 
REMARK    2  A    between atoms: C_2  and  C_3 
REMARK    3  A    between atoms: C_2  and  C_10 
REMARK    4  A    between atoms: C_2  and  C_17 
REMARK    5  A    between atoms: C_17  and  N_18 
ROOT
HETATM    1  C   LIG     1      27.351  27.750  33.563  1.00  0.00     0.133 C 
ENDROOT
BRANCH   1   2
HETATM    2  O   LIG     1      25.982  28.088  33.605  1.00  0.00    -0.378 OA
HETATM    3  H   LIG     1      25.702  28.366  32.691  1.00  0.00     0.211 HD
ENDBRANCH   1   2
BRANCH   1   4
HETATM    4  C   LIG     1      27.548  26.283  34.000  1.00  0.00    -0.018 A 
HETATM    5  C   LIG     1      26.487  25.572  34.606  1.00  0.00     0.013 A 
HETATM    6  C   LIG     1      26.637  24.232  34.972  1.00  0.00     0.043 A 
HETATM    7  C   LIG     1      27.843  23.572  34.737  1.00  0.00     0.116 A 
HETATM    8  C   LIG     1      28.902  24.253  34.134  1.00  0.00     0.043 A 
HETATM    9  F   LIG     1      27.986  22.272  35.092  1.00  0.00    -0.206 F 
HETATM   10  C   LIG     1      28.759  25.594  33.765  1.00  0.00     0.013 A 
ENDBRANCH   1   4
BRANCH   1  11
HETATM   11  C   LIG     1      27.884  28.040  32.139  1.00  0.00     0.021 A 
HETATM   12  C   LIG     1      28.962  28.925  31.892  1.00  0.00     0.013 A 
HETATM   13  C   LIG     1      29.417  29.160  30.592  1.00  0.00     0.001 A 
HETATM   14  C   LIG     1      28.831  28.503  29.514  1.00  0.00     0.003 A 
HETATM   15  C   LIG     1      27.799  27.592  29.732  1.00  0.00     0.043 A 
HETATM   16  C   LIG     1      27.336  27.349  31.029  1.00  0.00     0.126 A 
HETATM   17  F   LIG     1      26.375  26.405  31.195  1.00  0.00    -0.205 F 
ENDBRANCH   1  11
BRANCH   1  18
HETATM   18  C   LIG     1      28.078  28.673  34.585  1.00  0.00     0.200 C 
BRANCH  18  19
HETATM   19  N   LIG     1      27.131  29.504  35.330  1.00  0.00    -0.259 N 
HETATM   20  C   LIG     1      26.636  29.262  36.554  1.00  0.00     0.230 A 
HETATM   21  N   LIG     1      25.791  30.239  36.938  1.00  0.00    -0.234 NA
HETATM   22  C   LIG     1      25.815  31.078  35.878  1.00  0.00     0.256 A 
HETATM   23  N   LIG     1      26.627  30.644  34.895  1.00  0.00    -0.165 NA
ENDBRANCH  18  19
ENDBRANCH   1  18
TORSDOF 5
ENDMDL
MODEL 8
REMARK VINA RESULT:      -6.5     15.517     17.253
REMARK  5 active torsions:
REMARK  status: ('A' for Active; 'I' for Inactive)
REMARK    1  A    between atoms: O_1  and  C_2 
REMARK    2  A    between atoms: C_2  and  C_3 
REMARK    3  A    between atoms: C_2  and  C_10 
REMARK    4  A    between atoms: C_2  and  C_17 
REMARK    5  A    between atoms: C_17  and  N_18 
ROOT
HETATM    1  C   LIG     1      24.875  22.462  20.629  1.00  0.00     0.133 C 
ENDROOT
BRANCH   1   2
HETATM    2  O   LIG     1      24.017  23.323  21.347  1.00  0.00    -0.378 OA
HETATM    3  H   LIG     1      24.535  24.131  21.609  1.00  0.00     0.211 HD
ENDBRANCH   1   2
BRANCH   1   4
HETATM    4  C   LIG     1      24.046  21.424  19.843  1.00  0.00    -0.018 A 
HETATM    5  C   LIG     1      23.867  20.119  20.356  1.00  0.00     0.013 A 
HETATM    6  C   LIG     1      23.087  19.180  19.675  1.00  0.00     0.043 A 
HETATM    7  C   LIG     1      22.466  19.524  18.475  1.00  0.00     0.116 A 
HETATM    8  C   LIG     1      22.624  20.809  17.953  1.00  0.00     0.043 A 
HETATM    9  F   LIG     1      21.710  18.612  17.817  1.00  0.00    -0.206 F 
HETATM   10  C   LIG     1      23.402  21.753  18.629  1.00  0.00     0.013 A 
ENDBRANCH   1   4
BRANCH   1  11
HETATM   11  C   LIG     1      25.789  23.324  19.726  1.00  0.00     0.021 A 
HETATM   12  C   LIG     1      25.832  24.737  19.810  1.00  0.00     0.013 A 
HETATM   13  C   LIG     1      26.673  25.483  18.978  1.00  0.00     0.001 A 
HETATM   14  C   LIG     1      27.506  24.841  18.065  1.00  0.00     0.003 A 
HETATM   15  C   LIG     1      27.516  23.450  17.993  1.00  0.00     0.043 A 
HETATM   16  C   LIG     1      26.680  22.693  18.821  1.00  0.00     0.126 A 
HETATM   17  F   LIG     1      26.776  21.341  18.759  1.00  0.00    -0.205 F 
ENDBRANCH   1  11
BRANCH   1  18
HETATM   18  C   LIG     1      25.745  21.709  21.678  1.00  0.00     0.200 C 
BRANCH  18  19
HETATM   19  N   LIG     1      25.753  22.401  22.968  1.00  0.00    -0.259 N 
HETATM   20  C   LIG     1      26.719  23.202  23.448  1.00  0.00     0.230 A 
HETATM   21  N   LIG     1      26.395  23.675  24.667  1.00  0.00    -0.234 NA
HETATM   22  C   LIG     1      25.183  23.118  24.884  1.00  0.00     0.256 A 
HETATM   23  N   LIG     1      24.780  22.344  23.858  1.00  0.00    -0.165 NA
ENDBRANCH  18  19
ENDBRANCH   1  18
TORSDOF 5
ENDMDL
