MODEL 1
REMARK VINA RESULT:      -6.1      0.000      0.000
REMARK  3 active torsions:
REMARK  status: ('A' for Active; 'I' for Inactive)
REMARK    1  A    between atoms: C_6  and  C_10 
REMARK    2  A    between atoms: C_6  and  C_7 
REMARK    3  A    between atoms: C_10  and  C_11 
ROOT
HETATM    1  O   LIG     1      14.173  34.395  21.454  1.00  0.00    -0.247 OA
HETATM    2  C   LIG     1      15.017  35.298  21.693  1.00  0.00     0.329 C 
HETATM    3  N   LIG     1      16.402  35.070  21.442  1.00  0.00    -0.278 N 
HETATM    4  N   LIG     1      14.593  36.571  22.174  1.00  0.00    -0.278 N 
HETATM    5  C   LIG     1      15.557  37.572  22.517  1.00  0.00     0.244 C 
HETATM    6  C   LIG     1      17.026  37.191  22.749  1.00  0.00     0.128 C 
HETATM    7  C   LIG     1      17.357  36.096  21.730  1.00  0.00     0.244 C 
HETATM    8  O   LIG     1      18.477  36.054  21.155  1.00  0.00    -0.272 OA
HETATM    9  O   LIG     1      15.158  38.753  22.710  1.00  0.00    -0.272 OA
HETATM   10  H   LIG     1      16.703  34.200  20.947  1.00  0.00     0.173 HD
HETATM   11  H   LIG     1      13.573  36.791  22.224  1.00  0.00     0.173 HD
ENDROOT
BRANCH   6  12
HETATM   12  C   LIG     1      17.911  38.469  22.512  1.00  0.00     0.056 C 
BRANCH  12  13
HETATM   13  C   LIG     1      17.978  38.973  21.088  1.00  0.00    -0.035 C 
HETATM   14  C   LIG     1      19.123  39.396  20.541  1.00  0.00     0.007 C 
ENDBRANCH  12  13
ENDBRANCH   6  12
BRANCH   6  15
HETATM   15  C   LIG     1      17.128  36.601  24.211  1.00  0.00     0.005 C 
HETATM   16  C   LIG     1      18.107  37.373  25.117  1.00  0.00     0.011 C 
HETATM   17  C   LIG     1      17.435  35.091  24.295  1.00  0.00     0.011 C 
ENDBRANCH   6  15
TORSDOF 3
ENDMDL
MODEL 2
REMARK VINA RESULT:      -5.5      1.953      3.745
REMARK  3 active torsions:
REMARK  status: ('A' for Active; 'I' for Inactive)
REMARK    1  A    between atoms: C_6  and  C_10 
REMARK    2  A    between atoms: C_6  and  C_7 
REMARK    3  A    between atoms: C_10  and  C_11 
ROOT
HETATM    1  O   LIG     1      18.215  36.283  19.537  1.00  0.00    -0.247 OA
HETATM    2  C   LIG     1      17.964  36.534  20.745  1.00  0.00     0.329 C 
HETATM    3  N   LIG     1      17.422  35.522  21.591  1.00  0.00    -0.278 N 
HETATM    4  N   LIG     1      18.262  37.817  21.290  1.00  0.00    -0.278 N 
HETATM    5  C   LIG     1      17.909  38.128  22.642  1.00  0.00     0.244 C 
HETATM    6  C   LIG     1      16.885  37.269  23.397  1.00  0.00     0.128 C 
HETATM    7  C   LIG     1      17.127  35.821  22.960  1.00  0.00     0.244 C 
HETATM    8  O   LIG     1      17.038  34.867  23.777  1.00  0.00    -0.272 OA
HETATM    9  O   LIG     1      18.389  39.170  23.167  1.00  0.00    -0.272 OA
HETATM   10  H   LIG     1      17.346  34.540  21.242  1.00  0.00     0.173 HD
HETATM   11  H   LIG     1      18.789  38.513  20.715  1.00  0.00     0.173 HD
ENDROOT
BRANCH   6  12
HETATM   12  C   LIG     1      17.135  37.443  24.939  1.00  0.00     0.056 C 
BRANCH  12  13
HETATM   13  C   LIG     1      18.469  36.947  25.453  1.00  0.00    -0.035 C 
HETATM   14  C   LIG     1      18.575  36.263  26.596  1.00  0.00     0.007 C 
ENDBRANCH  12  13
ENDBRANCH   6  12
BRANCH   6  15
HETATM   15  C   LIG     1      15.450  37.732  22.923  1.00  0.00     0.005 C 
HETATM   16  C   LIG     1      14.757  36.720  21.990  1.00  0.00     0.011 C 
HETATM   17  C   LIG     1      15.384  39.139  22.291  1.00  0.00     0.011 C 
ENDBRANCH   6  15
TORSDOF 3
ENDMDL
MODEL 3
REMARK VINA RESULT:      -5.5      2.388      3.532
REMARK  3 active torsions:
REMARK  status: ('A' for Active; 'I' for Inactive)
REMARK    1  A    between atoms: C_6  and  C_10 
REMARK    2  A    between atoms: C_6  and  C_7 
REMARK    3  A    between atoms: C_10  and  C_11 
ROOT
HETATM    1  O   LIG     1      17.237  35.093  26.419  1.00  0.00    -0.247 OA
HETATM    2  C   LIG     1      17.385  35.638  25.294  1.00  0.00     0.329 C 
HETATM    3  N   LIG     1      17.820  36.992  25.204  1.00  0.00    -0.278 N 
HETATM    4  N   LIG     1      17.161  34.893  24.100  1.00  0.00    -0.278 N 
HETATM    5  C   LIG     1      17.255  35.531  22.821  1.00  0.00     0.244 C 
HETATM    6  C   LIG     1      17.209  37.061  22.710  1.00  0.00     0.128 C 
HETATM    7  C   LIG     1      17.971  37.608  23.921  1.00  0.00     0.244 C 
HETATM    8  O   LIG     1      18.712  38.622  23.824  1.00  0.00    -0.272 OA
HETATM    9  O   LIG     1      17.288  34.809  21.788  1.00  0.00    -0.272 OA
HETATM   10  H   LIG     1      18.134  37.495  26.065  1.00  0.00     0.173 HD
HETATM   11  H   LIG     1      16.982  33.865  24.157  1.00  0.00     0.173 HD
ENDROOT
BRANCH   6  12
HETATM   12  C   LIG     1      17.908  37.480  21.365  1.00  0.00     0.056 C 
BRANCH  12  13
HETATM   13  C   LIG     1      18.151  38.961  21.180  1.00  0.00    -0.035 C 
HETATM   14  C   LIG     1      19.071  39.425  20.327  1.00  0.00     0.007 C 
ENDBRANCH  12  13
ENDBRANCH   6  12
BRANCH   6  15
HETATM   15  C   LIG     1      15.690  37.488  22.804  1.00  0.00     0.005 C 
HETATM   16  C   LIG     1      14.768  36.682  21.869  1.00  0.00     0.011 C 
HETATM   17  C   LIG     1      15.414  38.995  22.619  1.00  0.00     0.011 C 
ENDBRANCH   6  15
TORSDOF 3
ENDMDL
MODEL 4
REMARK VINA RESULT:      -5.5      1.328      3.430
REMARK  3 active torsions:
REMARK  status: ('A' for Active; 'I' for Inactive)
REMARK    1  A    between atoms: C_6  and  C_10 
REMARK    2  A    between atoms: C_6  and  C_7 
REMARK    3  A    between atoms: C_10  and  C_11 
ROOT
HETATM    1  O   LIG     1      14.969  34.712  20.291  1.00  0.00    -0.247 OA
HETATM    2  C   LIG     1      15.413  35.320  21.300  1.00  0.00     0.329 C 
HETATM    3  N   LIG     1      14.922  36.617  21.630  1.00  0.00    -0.278 N 
HETATM    4  N   LIG     1      16.378  34.700  22.147  1.00  0.00    -0.278 N 
HETATM    5  C   LIG     1      16.940  35.419  23.251  1.00  0.00     0.244 C 
HETATM    6  C   LIG     1      16.827  36.948  23.322  1.00  0.00     0.128 C 
HETATM    7  C   LIG     1      15.444  37.308  22.770  1.00  0.00     0.244 C 
HETATM    8  O   LIG     1      14.756  38.233  23.278  1.00  0.00    -0.272 OA
HETATM    9  O   LIG     1      17.602  34.780  24.113  1.00  0.00    -0.272 OA
HETATM   10  H   LIG     1      14.109  37.013  21.106  1.00  0.00     0.173 HD
HETATM   11  H   LIG     1      16.635  33.699  21.992  1.00  0.00     0.173 HD
ENDROOT
BRANCH   6  12
HETATM   12  C   LIG     1      16.966  37.384  24.825  1.00  0.00     0.056 C 
BRANCH  12  13
HETATM   13  C   LIG     1      18.372  37.395  25.384  1.00  0.00    -0.035 C 
HETATM   14  C   LIG     1      18.683  36.776  26.528  1.00  0.00     0.007 C 
ENDBRANCH  12  13
ENDBRANCH   6  12
BRANCH   6  15
HETATM   15  C   LIG     1      17.945  37.541  22.375  1.00  0.00     0.005 C 
HETATM   16  C   LIG     1      17.877  39.074  22.232  1.00  0.00     0.011 C 
HETATM   17  C   LIG     1      18.034  36.900  20.974  1.00  0.00     0.011 C 
ENDBRANCH   6  15
TORSDOF 3
ENDMDL
MODEL 5
REMARK VINA RESULT:      -5.1      2.138      4.093
REMARK  3 active torsions:
REMARK  status: ('A' for Active; 'I' for Inactive)
REMARK    1  A    between atoms: C_6  and  C_10 
REMARK    2  A    between atoms: C_6  and  C_7 
REMARK    3  A    between atoms: C_10  and  C_11 
ROOT
HETATM    1  O   LIG     1      18.981  39.842  20.154  1.00  0.00    -0.247 OA
HETATM    2  C   LIG     1      18.588  38.871  20.851  1.00  0.00     0.329 C 
HETATM    3  N   LIG     1      18.390  37.592  20.254  1.00  0.00    -0.278 N 
HETATM    4  N   LIG     1      18.381  39.028  22.253  1.00  0.00    -0.278 N 
HETATM    5  C   LIG     1      17.862  37.946  23.034  1.00  0.00     0.244 C 
HETATM    6  C   LIG     1      17.165  36.760  22.353  1.00  0.00     0.128 C 
HETATM    7  C   LIG     1      17.928  36.496  21.051  1.00  0.00     0.244 C 
HETATM    8  O   LIG     1      18.134  35.324  20.639  1.00  0.00    -0.272 OA
HETATM    9  O   LIG     1      17.911  38.031  24.291  1.00  0.00    -0.272 OA
HETATM   10  H   LIG     1      18.686  37.430  19.264  1.00  0.00     0.173 HD
HETATM   11  H   LIG     1      18.660  39.921  22.720  1.00  0.00     0.173 HD
ENDROOT
BRANCH   6  12
HETATM   12  C   LIG     1      17.246  35.520  23.316  1.00  0.00     0.056 C 
BRANCH  12  13
HETATM   13  C   LIG     1      17.278  35.833  24.796  1.00  0.00    -0.035 C 
HETATM   14  C   LIG     1      17.607  34.911  25.707  1.00  0.00     0.007 C 
ENDBRANCH  12  13
ENDBRANCH   6  12
BRANCH   6  15
HETATM   15  C   LIG     1      15.690  37.217  22.018  1.00  0.00     0.005 C 
HETATM   16  C   LIG     1      15.005  37.972  23.174  1.00  0.00     0.011 C 
HETATM   17  C   LIG     1      14.751  36.102  21.508  1.00  0.00     0.011 C 
ENDBRANCH   6  15
TORSDOF 3
ENDMDL
MODEL 6
REMARK VINA RESULT:      -4.9      2.302      3.710
REMARK  3 active torsions:
REMARK  status: ('A' for Active; 'I' for Inactive)
REMARK    1  A    between atoms: C_6  and  C_10 
REMARK    2  A    between atoms: C_6  and  C_7 
REMARK    3  A    between atoms: C_10  and  C_11 
ROOT
HETATM    1  O   LIG     1      16.937  38.676  26.115  1.00  0.00    -0.247 OA
HETATM    2  C   LIG     1      17.169  38.090  25.026  1.00  0.00     0.329 C 
HETATM    3  N   LIG     1      17.649  38.825  23.902  1.00  0.00    -0.278 N 
HETATM    4  N   LIG     1      16.998  36.679  24.918  1.00  0.00    -0.278 N 
HETATM    5  C   LIG     1      17.189  36.021  23.660  1.00  0.00     0.244 C 
HETATM    6  C   LIG     1      17.194  36.827  22.354  1.00  0.00     0.128 C 
HETATM    7  C   LIG     1      17.897  38.152  22.664  1.00  0.00     0.244 C 
HETATM    8  O   LIG     1      18.672  38.693  21.831  1.00  0.00    -0.272 OA
HETATM    9  O   LIG     1      17.263  34.762  23.643  1.00  0.00    -0.272 OA
HETATM   10  H   LIG     1      17.924  39.827  24.017  1.00  0.00     0.173 HD
HETATM   11  H   LIG     1      16.785  36.117  25.773  1.00  0.00     0.173 HD
ENDROOT
BRANCH   6  12
HETATM   12  C   LIG     1      17.986  36.007  21.272  1.00  0.00     0.056 C 
BRANCH  12  13
HETATM   13  C   LIG     1      18.012  36.600  19.880  1.00  0.00    -0.035 C 
HETATM   14  C   LIG     1      19.156  36.944  19.280  1.00  0.00     0.007 C 
ENDBRANCH  12  13
ENDBRANCH   6  12
BRANCH   6  15
HETATM   15  C   LIG     1      15.686  37.104  21.972  1.00  0.00     0.005 C 
HETATM   16  C   LIG     1      14.882  37.778  23.101  1.00  0.00     0.011 C 
HETATM   17  C   LIG     1      14.902  35.883  21.445  1.00  0.00     0.011 C 
ENDBRANCH   6  15
TORSDOF 3
ENDMDL
MODEL 7
REMARK VINA RESULT:      -4.3      1.715      2.446
REMARK  3 active torsions:
REMARK  status: ('A' for Active; 'I' for Inactive)
REMARK    1  A    between atoms: C_6  and  C_10 
REMARK    2  A    between atoms: C_6  and  C_7 
REMARK    3  A    between atoms: C_10  and  C_11 
ROOT
HETATM    1  O   LIG     1      15.578  34.482  18.900  1.00  0.00    -0.247 OA
HETATM    2  C   LIG     1      15.910  35.306  19.792  1.00  0.00     0.329 C 
HETATM    3  N   LIG     1      17.198  35.917  19.762  1.00  0.00    -0.278 N 
HETATM    4  N   LIG     1      14.986  35.669  20.815  1.00  0.00    -0.278 N 
HETATM    5  C   LIG     1      15.386  36.548  21.872  1.00  0.00     0.244 C 
HETATM    6  C   LIG     1      16.874  36.801  22.153  1.00  0.00     0.128 C 
HETATM    7  C   LIG     1      17.572  36.841  20.789  1.00  0.00     0.244 C 
HETATM    8  O   LIG     1      18.504  37.655  20.555  1.00  0.00    -0.272 OA
HETATM    9  O   LIG     1      14.496  37.036  22.621  1.00  0.00    -0.272 OA
HETATM   10  H   LIG     1      17.821  35.774  18.935  1.00  0.00     0.173 HD
HETATM   11  H   LIG     1      13.997  35.335  20.761  1.00  0.00     0.173 HD
ENDROOT
BRANCH   6  12
HETATM   12  C   LIG     1      17.009  38.179  22.897  1.00  0.00     0.056 C 
BRANCH  12  13
HETATM   13  C   LIG     1      17.899  38.186  24.119  1.00  0.00    -0.035 C 
HETATM   14  C   LIG     1      17.409  38.368  25.350  1.00  0.00     0.007 C 
ENDBRANCH  12  13
ENDBRANCH   6  12
BRANCH   6  15
HETATM   15  C   LIG     1      17.407  35.567  22.984  1.00  0.00     0.005 C 
HETATM   16  C   LIG     1      17.542  34.278  22.150  1.00  0.00     0.011 C 
HETATM   17  C   LIG     1      16.630  35.258  24.281  1.00  0.00     0.011 C 
ENDBRANCH   6  15
TORSDOF 3
ENDMDL
MODEL 8
REMARK VINA RESULT:      -4.1     15.788     17.056
REMARK  3 active torsions:
REMARK  status: ('A' for Active; 'I' for Inactive)
REMARK    1  A    between atoms: C_6  and  C_10 
REMARK    2  A    between atoms: C_6  and  C_7 
REMARK    3  A    between atoms: C_10  and  C_11 
ROOT
HETATM    1  O   LIG     1      22.863  18.476  21.025  1.00  0.00    -0.247 OA
HETATM    2  C   LIG     1      23.469  19.514  20.650  1.00  0.00     0.329 C 
HETATM    3  N   LIG     1      24.728  19.857  21.224  1.00  0.00    -0.278 N 
HETATM    4  N   LIG     1      22.923  20.332  19.618  1.00  0.00    -0.278 N 
HETATM    5  C   LIG     1      23.573  21.552  19.243  1.00  0.00     0.244 C 
HETATM    6  C   LIG     1      24.613  22.197  20.170  1.00  0.00     0.128 C 
HETATM    7  C   LIG     1      25.403  21.047  20.802  1.00  0.00     0.244 C 
HETATM    8  O   LIG     1      26.644  21.134  20.996  1.00  0.00    -0.272 OA
HETATM    9  O   LIG     1      23.208  22.128  18.182  1.00  0.00    -0.272 OA
HETATM   10  H   LIG     1      25.206  19.185  21.866  1.00  0.00     0.173 HD
HETATM   11  H   LIG     1      22.076  20.011  19.097  1.00  0.00     0.173 HD
ENDROOT
BRANCH   6  12
HETATM   12  C   LIG     1      25.548  23.113  19.300  1.00  0.00     0.056 C 
BRANCH  12  13
HETATM   13  C   LIG     1      25.909  24.452  19.904  1.00  0.00    -0.035 C 
HETATM   14  C   LIG     1      26.278  25.492  19.148  1.00  0.00     0.007 C 
ENDBRANCH  12  13
ENDBRANCH   6  12
BRANCH   6  15
HETATM   15  C   LIG     1      23.817  22.973  21.293  1.00  0.00     0.005 C 
HETATM   16  C   LIG     1      24.285  22.633  22.721  1.00  0.00     0.011 C 
HETATM   17  C   LIG     1      22.280  22.855  21.216  1.00  0.00     0.011 C 
ENDBRANCH   6  15
TORSDOF 3
ENDMDL
MODEL 9
REMARK VINA RESULT:      -4.0     15.688     17.438
REMARK  3 active torsions:
REMARK  status: ('A' for Active; 'I' for Inactive)
REMARK    1  A    between atoms: C_6  and  C_10 
REMARK    2  A    between atoms: C_6  and  C_7 
REMARK    3  A    between atoms: C_10  and  C_11 
ROOT
HETATM    1  O   LIG     1      26.598  21.954  24.014  1.00  0.00    -0.247 OA
HETATM    2  C   LIG     1      26.085  21.938  22.865  1.00  0.00     0.329 C 
HETATM    3  N   LIG     1      25.862  23.158  22.161  1.00  0.00    -0.278 N 
HETATM    4  N   LIG     1      25.764  20.699  22.238  1.00  0.00    -0.278 N 
HETATM    5  C   LIG     1      25.112  20.681  20.963  1.00  0.00     0.244 C 
HETATM    6  C   LIG     1      24.406  21.936  20.432  1.00  0.00     0.128 C 
HETATM    7  C   LIG     1      25.265  23.131  20.860  1.00  0.00     0.244 C 
HETATM    8  O   LIG     1      25.433  24.121  20.101  1.00  0.00    -0.272 OA
HETATM    9  O   LIG     1      25.055  19.591  20.330  1.00  0.00    -0.272 OA
HETATM   10  H   LIG     1      26.234  24.055  22.546  1.00  0.00     0.173 HD
HETATM   11  H   LIG     1      26.055  19.801  22.687  1.00  0.00     0.173 HD
ENDROOT
BRANCH   6  12
HETATM   12  C   LIG     1      24.325  21.832  18.865  1.00  0.00     0.056 C 
BRANCH  12  13
HETATM   13  C   LIG     1      22.964  21.504  18.293  1.00  0.00    -0.035 C 
HETATM   14  C   LIG     1      22.648  20.271  17.882  1.00  0.00     0.007 C 
ENDBRANCH  12  13
ENDBRANCH   6  12
BRANCH   6  15
HETATM   15  C   LIG     1      22.998  22.014  21.144  1.00  0.00     0.005 C 
HETATM   16  C   LIG     1      22.634  23.430  21.630  1.00  0.00     0.011 C 
HETATM   17  C   LIG     1      22.781  21.007  22.293  1.00  0.00     0.011 C 
ENDBRANCH   6  15
TORSDOF 3
ENDMDL
MODEL 10
REMARK VINA RESULT:      -4.0     16.101     17.930
REMARK  3 active torsions:
REMARK  status: ('A' for Active; 'I' for Inactive)
REMARK    1  A    between atoms: C_6  and  C_10 
REMARK    2  A    between atoms: C_6  and  C_7 
REMARK    3  A    between atoms: C_10  and  C_11 
ROOT
HETATM    1  O   LIG     1      27.046  23.388  19.277  1.00  0.00    -0.247 OA
HETATM    2  C   LIG     1      26.090  22.595  19.476  1.00  0.00     0.329 C 
HETATM    3  N   LIG     1      24.832  22.811  18.840  1.00  0.00    -0.278 N 
HETATM    4  N   LIG     1      26.268  21.449  20.305  1.00  0.00    -0.278 N 
HETATM    5  C   LIG     1      25.161  20.587  20.594  1.00  0.00     0.244 C 
HETATM    6  C   LIG     1      23.721  21.064  20.361  1.00  0.00     0.128 C 
HETATM    7  C   LIG     1      23.746  21.912  19.085  1.00  0.00     0.244 C 
HETATM    8  O   LIG     1      22.805  21.865  18.250  1.00  0.00    -0.272 OA
HETATM    9  O   LIG     1      25.392  19.466  21.126  1.00  0.00    -0.272 OA
HETATM   10  H   LIG     1      24.740  23.557  18.114  1.00  0.00     0.173 HD
HETATM   11  H   LIG     1      27.222  21.208  20.657  1.00  0.00     0.173 HD
ENDROOT
BRANCH   6  12
HETATM   12  C   LIG     1      22.805  19.799  20.181  1.00  0.00     0.056 C 
BRANCH  12  13
HETATM   13  C   LIG     1      23.062  18.967  18.945  1.00  0.00    -0.035 C 
HETATM   14  C   LIG     1      22.065  18.411  18.248  1.00  0.00     0.007 C 
ENDBRANCH  12  13
ENDBRANCH   6  12
BRANCH   6  15
HETATM   15  C   LIG     1      23.327  21.972  21.593  1.00  0.00     0.005 C 
HETATM   16  C   LIG     1      23.109  21.178  22.895  1.00  0.00     0.011 C 
HETATM   17  C   LIG     1      22.128  22.916  21.362  1.00  0.00     0.011 C 
ENDBRANCH   6  15
TORSDOF 3
ENDMDL
MODEL 11
REMARK VINA RESULT:      -3.9     18.818     20.220
REMARK  3 active torsions:
REMARK  status: ('A' for Active; 'I' for Inactive)
REMARK    1  A    between atoms: C_6  and  C_10 
REMARK    2  A    between atoms: C_6  and  C_7 
REMARK    3  A    between atoms: C_10  and  C_11 
ROOT
HETATM    1  O   LIG     1      20.963  18.919  32.043  1.00  0.00    -0.247 OA
HETATM    2  C   LIG     1      21.118  19.950  32.749  1.00  0.00     0.329 C 
HETATM    3  N   LIG     1      22.276  20.092  33.568  1.00  0.00    -0.278 N 
HETATM    4  N   LIG     1      20.160  21.004  32.702  1.00  0.00    -0.278 N 
HETATM    5  C   LIG     1      20.296  22.143  33.559  1.00  0.00     0.244 C 
HETATM    6  C   LIG     1      21.214  22.088  34.788  1.00  0.00     0.128 C 
HETATM    7  C   LIG     1      22.437  21.260  34.378  1.00  0.00     0.244 C 
HETATM    8  O   LIG     1      23.594  21.565  34.771  1.00  0.00    -0.272 OA
HETATM    9  O   LIG     1      19.579  23.157  33.334  1.00  0.00    -0.272 OA
HETATM   10  H   LIG     1      23.054  19.398  33.491  1.00  0.00     0.173 HD
HETATM   11  H   LIG     1      19.387  20.970  31.999  1.00  0.00     0.173 HD
ENDROOT
BRANCH   6  12
HETATM   12  C   LIG     1      21.626  23.557  35.163  1.00  0.00     0.056 C 
BRANCH  12  13
HETATM   13  C   LIG     1      21.534  23.916  36.630  1.00  0.00    -0.035 C 
HETATM   14  C   LIG     1      22.539  23.679  37.480  1.00  0.00     0.007 C 
ENDBRANCH  12  13
ENDBRANCH   6  12
BRANCH   6  15
HETATM   15  C   LIG     1      20.421  21.332  35.927  1.00  0.00     0.005 C 
HETATM   16  C   LIG     1      21.253  20.245  36.635  1.00  0.00     0.011 C 
HETATM   17  C   LIG     1      19.059  20.741  35.505  1.00  0.00     0.011 C 
ENDBRANCH   6  15
TORSDOF 3
ENDMDL
MODEL 12
REMARK VINA RESULT:      -3.8     15.733     17.250
REMARK  3 active torsions:
REMARK  status: ('A' for Active; 'I' for Inactive)
REMARK    1  A    between atoms: C_6  and  C_10 
REMARK    2  A    between atoms: C_6  and  C_7 
REMARK    3  A    between atoms: C_10  and  C_11 
ROOT
HETATM    1  O   LIG     1      22.901  18.946  21.979  1.00  0.00    -0.247 OA
HETATM    2  C   LIG     1      23.510  19.995  21.643  1.00  0.00     0.329 C 
HETATM    3  N   LIG     1      22.830  21.248  21.633  1.00  0.00    -0.278 N 
HETATM    4  N   LIG     1      24.895  19.947  21.312  1.00  0.00    -0.278 N 
HETATM    5  C   LIG     1      25.571  21.125  20.857  1.00  0.00     0.244 C 
HETATM    6  C   LIG     1      24.773  22.333  20.349  1.00  0.00     0.128 C 
HETATM    7  C   LIG     1      23.527  22.434  21.235  1.00  0.00     0.244 C 
HETATM    8  O   LIG     1      23.071  23.550  21.600  1.00  0.00    -0.272 OA
HETATM    9  O   LIG     1      26.831  21.113  20.799  1.00  0.00    -0.272 OA
HETATM   10  H   LIG     1      21.862  21.317  22.021  1.00  0.00     0.173 HD
HETATM   11  H   LIG     1      25.431  19.061  21.455  1.00  0.00     0.173 HD
ENDROOT
BRANCH   6  12
HETATM   12  C   LIG     1      25.672  23.615  20.492  1.00  0.00     0.056 C 
BRANCH  12  13
HETATM   13  C   LIG     1      26.141  24.242  19.198  1.00  0.00    -0.035 C 
HETATM   14  C   LIG     1      26.328  25.560  19.078  1.00  0.00     0.007 C 
ENDBRANCH  12  13
ENDBRANCH   6  12
BRANCH   6  15
HETATM   15  C   LIG     1      24.341  22.015  18.863  1.00  0.00     0.005 C 
HETATM   16  C   LIG     1      22.815  21.918  18.675  1.00  0.00     0.011 C 
HETATM   17  C   LIG     1      25.014  20.779  18.229  1.00  0.00     0.011 C 
ENDBRANCH   6  15
TORSDOF 3
ENDMDL
MODEL 13
REMARK VINA RESULT:      -3.8     17.547     19.213
REMARK  3 active torsions:
REMARK  status: ('A' for Active; 'I' for Inactive)
REMARK    1  A    between atoms: C_6  and  C_10 
REMARK    2  A    between atoms: C_6  and  C_7 
REMARK    3  A    between atoms: C_10  and  C_11 
ROOT
HETATM    1  O   LIG     1      29.604  32.260  38.024  1.00  0.00    -0.247 OA
HETATM    2  C   LIG     1      28.957  31.605  37.166  1.00  0.00     0.329 C 
HETATM    3  N   LIG     1      27.539  31.734  37.084  1.00  0.00    -0.278 N 
HETATM    4  N   LIG     1      29.638  30.764  36.239  1.00  0.00    -0.278 N 
HETATM    5  C   LIG     1      28.898  29.962  35.311  1.00  0.00     0.244 C 
HETATM    6  C   LIG     1      27.406  29.686  35.538  1.00  0.00     0.128 C 
HETATM    7  C   LIG     1      26.809  30.974  36.115  1.00  0.00     0.244 C 
HETATM    8  O   LIG     1      25.662  31.371  35.781  1.00  0.00    -0.272 OA
HETATM    9  O   LIG     1      29.518  29.416  34.358  1.00  0.00    -0.272 OA
HETATM   10  H   LIG     1      27.050  32.461  37.654  1.00  0.00     0.173 HD
HETATM   11  H   LIG     1      30.683  30.776  36.200  1.00  0.00     0.173 HD
ENDROOT
BRANCH   6  12
HETATM   12  C   LIG     1      26.752  29.332  34.153  1.00  0.00     0.056 C 
BRANCH  12  13
HETATM   13  C   LIG     1      26.512  27.862  33.892  1.00  0.00    -0.035 C 
HETATM   14  C   LIG     1      26.433  27.368  32.652  1.00  0.00     0.007 C 
ENDBRANCH  12  13
ENDBRANCH   6  12
BRANCH   6  15
HETATM   15  C   LIG     1      27.304  28.530  36.611  1.00  0.00     0.005 C 
HETATM   16  C   LIG     1      26.493  28.923  37.861  1.00  0.00     0.011 C 
HETATM   17  C   LIG     1      28.649  27.912  37.047  1.00  0.00     0.011 C 
ENDBRANCH   6  15
TORSDOF 3
ENDMDL
MODEL 14
REMARK VINA RESULT:      -3.6     17.166     18.765
REMARK  3 active torsions:
REMARK  status: ('A' for Active; 'I' for Inactive)
REMARK    1  A    between atoms: C_6  and  C_10 
REMARK    2  A    between atoms: C_6  and  C_7 
REMARK    3  A    between atoms: C_10  and  C_11 
ROOT
HETATM    1  O   LIG     1      25.481  31.502  35.846  1.00  0.00    -0.247 OA
HETATM    2  C   LIG     1      26.297  30.578  35.590  1.00  0.00     0.329 C 
HETATM    3  N   LIG     1      27.061  30.607  34.386  1.00  0.00    -0.278 N 
HETATM    4  N   LIG     1      26.498  29.517  36.521  1.00  0.00    -0.278 N 
HETATM    5  C   LIG     1      27.368  28.427  36.199  1.00  0.00     0.244 C 
HETATM    6  C   LIG     1      27.787  28.169  34.744  1.00  0.00     0.128 C 
HETATM    7  C   LIG     1      27.975  29.545  34.097  1.00  0.00     0.244 C 
HETATM    8  O   LIG     1      28.906  29.760  33.276  1.00  0.00    -0.272 OA
HETATM    9  O   LIG     1      27.709  27.635  37.119  1.00  0.00    -0.272 OA
HETATM   10  H   LIG     1      27.033  31.455  33.775  1.00  0.00     0.173 HD
HETATM   11  H   LIG     1      26.050  29.565  37.464  1.00  0.00     0.173 HD
ENDROOT
BRANCH   6  12
HETATM   12  C   LIG     1      29.135  27.361  34.755  1.00  0.00     0.056 C 
BRANCH  12  13
HETATM   13  C   LIG     1      29.730  27.049  33.399  1.00  0.00    -0.035 C 
HETATM   14  C   LIG     1      29.914  25.792  32.981  1.00  0.00     0.007 C 
ENDBRANCH  12  13
ENDBRANCH   6  12
BRANCH   6  15
HETATM   15  C   LIG     1      26.590  27.413  34.043  1.00  0.00     0.005 C 
HETATM   16  C   LIG     1      26.492  25.926  34.433  1.00  0.00     0.011 C 
HETATM   17  C   LIG     1      26.535  27.543  32.506  1.00  0.00     0.011 C 
ENDBRANCH   6  15
TORSDOF 3
ENDMDL
MODEL 15
REMARK VINA RESULT:      -3.5     17.384     19.055
REMARK  3 active torsions:
REMARK  status: ('A' for Active; 'I' for Inactive)
REMARK    1  A    between atoms: C_6  and  C_10 
REMARK    2  A    between atoms: C_6  and  C_7 
REMARK    3  A    between atoms: C_10  and  C_11 
ROOT
HETATM    1  O   LIG     1      25.859  32.093  38.129  1.00  0.00    -0.247 OA
HETATM    2  C   LIG     1      26.419  31.241  37.391  1.00  0.00     0.329 C 
HETATM    3  N   LIG     1      27.638  30.625  37.800  1.00  0.00    -0.278 N 
HETATM    4  N   LIG     1      25.817  30.850  36.159  1.00  0.00    -0.278 N 
HETATM    5  C   LIG     1      26.488  29.938  35.283  1.00  0.00     0.244 C 
HETATM    6  C   LIG     1      27.991  29.670  35.442  1.00  0.00     0.128 C 
HETATM    7  C   LIG     1      28.275  29.669  36.947  1.00  0.00     0.244 C 
HETATM    8  O   LIG     1      29.093  28.858  37.459  1.00  0.00    -0.272 OA
HETATM    9  O   LIG     1      25.839  29.431  34.327  1.00  0.00    -0.272 OA
HETATM   10  H   LIG     1      28.004  30.790  38.765  1.00  0.00     0.173 HD
HETATM   11  H   LIG     1      24.857  31.190  35.922  1.00  0.00     0.173 HD
ENDROOT
BRANCH   6  12
HETATM   12  C   LIG     1      28.312  28.269  34.805  1.00  0.00     0.056 C 
BRANCH  12  13
HETATM   13  C   LIG     1      27.421  27.126  35.236  1.00  0.00    -0.035 C 
HETATM   14  C   LIG     1      27.134  26.106  34.419  1.00  0.00     0.007 C 
ENDBRANCH  12  13
ENDBRANCH   6  12
BRANCH   6  15
HETATM   15  C   LIG     1      28.753  30.875  34.761  1.00  0.00     0.005 C 
HETATM   16  C   LIG     1      28.821  30.768  33.225  1.00  0.00     0.011 C 
HETATM   17  C   LIG     1      30.164  31.164  35.316  1.00  0.00     0.011 C 
ENDBRANCH   6  15
TORSDOF 3
ENDMDL
MODEL 16
REMARK VINA RESULT:      -3.5     16.513     18.106
REMARK  3 active torsions:
REMARK  status: ('A' for Active; 'I' for Inactive)
REMARK    1  A    between atoms: C_6  and  C_10 
REMARK    2  A    between atoms: C_6  and  C_7 
REMARK    3  A    between atoms: C_10  and  C_11 
ROOT
HETATM    1  O   LIG     1      29.720  21.328  20.999  1.00  0.00    -0.247 OA
HETATM    2  C   LIG     1      28.680  21.684  20.384  1.00  0.00     0.329 C 
HETATM    3  N   LIG     1      28.565  21.464  18.980  1.00  0.00    -0.278 N 
HETATM    4  N   LIG     1      27.591  22.269  21.093  1.00  0.00    -0.278 N 
HETATM    5  C   LIG     1      26.439  22.742  20.387  1.00  0.00     0.244 C 
HETATM    6  C   LIG     1      26.502  22.991  18.873  1.00  0.00     0.128 C 
HETATM    7  C   LIG     1      27.385  21.885  18.288  1.00  0.00     0.244 C 
HETATM    8  O   LIG     1      27.116  21.351  17.179  1.00  0.00    -0.272 OA
HETATM    9  O   LIG     1      25.404  23.033  21.046  1.00  0.00    -0.272 OA
HETATM   10  H   LIG     1      29.290  20.899  18.482  1.00  0.00     0.173 HD
HETATM   11  H   LIG     1      27.611  22.301  22.138  1.00  0.00     0.173 HD
ENDROOT
BRANCH   6  12
HETATM   12  C   LIG     1      25.041  22.912  18.298  1.00  0.00     0.056 C 
BRANCH  12  13
HETATM   13  C   LIG     1      24.319  21.599  18.504  1.00  0.00    -0.035 C 
HETATM   14  C   LIG     1      22.992  21.494  18.376  1.00  0.00     0.007 C 
ENDBRANCH  12  13
ENDBRANCH   6  12
BRANCH   6  15
HETATM   15  C   LIG     1      27.200  24.393  18.662  1.00  0.00     0.005 C 
HETATM   16  C   LIG     1      26.277  25.590  18.963  1.00  0.00     0.011 C 
HETATM   17  C   LIG     1      27.870  24.597  17.287  1.00  0.00     0.011 C 
ENDBRANCH   6  15
TORSDOF 3
ENDMDL
MODEL 17
REMARK VINA RESULT:      -3.5     17.560     19.307
REMARK  3 active torsions:
REMARK  status: ('A' for Active; 'I' for Inactive)
REMARK    1  A    between atoms: C_6  and  C_10 
REMARK    2  A    between atoms: C_6  and  C_7 
REMARK    3  A    between atoms: C_10  and  C_11 
ROOT
HETATM    1  O   LIG     1      25.794  31.185  36.118  1.00  0.00    -0.247 OA
HETATM    2  C   LIG     1      26.229  30.044  35.811  1.00  0.00     0.329 C 
HETATM    3  N   LIG     1      26.717  29.165  36.822  1.00  0.00    -0.278 N 
HETATM    4  N   LIG     1      26.196  29.603  34.456  1.00  0.00    -0.278 N 
HETATM    5  C   LIG     1      26.758  28.336  34.094  1.00  0.00     0.244 C 
HETATM    6  C   LIG     1      27.730  27.618  35.040  1.00  0.00     0.128 C 
HETATM    7  C   LIG     1      27.223  27.876  36.462  1.00  0.00     0.244 C 
HETATM    8  O   LIG     1      27.272  26.981  37.347  1.00  0.00    -0.272 OA
HETATM    9  O   LIG     1      26.508  27.870  32.949  1.00  0.00    -0.272 OA
HETATM   10  H   LIG     1      26.602  29.419  37.830  1.00  0.00     0.173 HD
HETATM   11  H   LIG     1      25.710  30.182  33.735  1.00  0.00     0.173 HD
ENDROOT
BRANCH   6  12
HETATM   12  C   LIG     1      27.705  26.083  34.701  1.00  0.00     0.056 C 
BRANCH  12  13
HETATM   13  C   LIG     1      26.343  25.426  34.707  1.00  0.00    -0.035 C 
HETATM   14  C   LIG     1      26.117  24.271  35.342  1.00  0.00     0.007 C 
ENDBRANCH  12  13
ENDBRANCH   6  12
BRANCH   6  15
HETATM   15  C   LIG     1      29.147  28.293  34.853  1.00  0.00     0.005 C 
HETATM   16  C   LIG     1      29.885  27.827  33.583  1.00  0.00     0.011 C 
HETATM   17  C   LIG     1      30.096  28.187  36.065  1.00  0.00     0.011 C 
ENDBRANCH   6  15
TORSDOF 3
ENDMDL
MODEL 18
REMARK VINA RESULT:      -3.4     17.370     18.872
REMARK  3 active torsions:
REMARK  status: ('A' for Active; 'I' for Inactive)
REMARK    1  A    between atoms: C_6  and  C_10 
REMARK    2  A    between atoms: C_6  and  C_7 
REMARK    3  A    between atoms: C_10  and  C_11 
ROOT
HETATM    1  O   LIG     1      25.923  32.083  38.128  1.00  0.00    -0.247 OA
HETATM    2  C   LIG     1      26.595  31.510  37.231  1.00  0.00     0.329 C 
HETATM    3  N   LIG     1      25.973  30.575  36.353  1.00  0.00    -0.278 N 
HETATM    4  N   LIG     1      27.975  31.822  37.057  1.00  0.00    -0.278 N 
HETATM    5  C   LIG     1      28.760  31.118  36.088  1.00  0.00     0.244 C 
HETATM    6  C   LIG     1      28.266  29.785  35.507  1.00  0.00     0.128 C 
HETATM    7  C   LIG     1      26.749  29.918  35.346  1.00  0.00     0.244 C 
HETATM    8  O   LIG     1      26.151  29.425  34.352  1.00  0.00    -0.272 OA
HETATM    9  O   LIG     1      29.899  31.569  35.791  1.00  0.00    -0.272 OA
HETATM   10  H   LIG     1      24.934  30.456  36.373  1.00  0.00     0.173 HD
HETATM   11  H   LIG     1      28.401  32.607  37.601  1.00  0.00     0.173 HD
ENDROOT
BRANCH   6  12
HETATM   12  C   LIG     1      28.965  29.563  34.117  1.00  0.00     0.056 C 
BRANCH  12  13
HETATM   13  C   LIG     1      28.730  30.638  33.079  1.00  0.00    -0.035 C 
HETATM   14  C   LIG     1      29.666  30.976  32.186  1.00  0.00     0.007 C 
ENDBRANCH  12  13
ENDBRANCH   6  12
BRANCH   6  15
HETATM   15  C   LIG     1      28.589  28.665  36.574  1.00  0.00     0.005 C 
HETATM   16  C   LIG     1      30.067  28.227  36.576  1.00  0.00     0.011 C 
HETATM   17  C   LIG     1      27.686  27.415  36.515  1.00  0.00     0.011 C 
ENDBRANCH   6  15
TORSDOF 3
ENDMDL
MODEL 19
REMARK VINA RESULT:      -3.4     16.745     18.422
REMARK  3 active torsions:
REMARK  status: ('A' for Active; 'I' for Inactive)
REMARK    1  A    between atoms: C_6  and  C_10 
REMARK    2  A    between atoms: C_6  and  C_7 
REMARK    3  A    between atoms: C_10  and  C_11 
ROOT
HETATM    1  O   LIG     1      27.088  19.241  22.211  1.00  0.00    -0.247 OA
HETATM    2  C   LIG     1      26.131  19.658  21.508  1.00  0.00     0.329 C 
HETATM    3  N   LIG     1      26.269  20.854  20.744  1.00  0.00    -0.278 N 
HETATM    4  N   LIG     1      24.917  18.916  21.434  1.00  0.00    -0.278 N 
HETATM    5  C   LIG     1      23.801  19.427  20.695  1.00  0.00     0.244 C 
HETATM    6  C   LIG     1      23.738  20.911  20.307  1.00  0.00     0.128 C 
HETATM    7  C   LIG     1      25.170  21.329  19.960  1.00  0.00     0.244 C 
HETATM    8  O   LIG     1      25.408  22.121  19.009  1.00  0.00    -0.272 OA
HETATM    9  O   LIG     1      22.835  18.654  20.450  1.00  0.00    -0.272 OA
HETATM   10  H   LIG     1      27.202  21.319  20.672  1.00  0.00     0.173 HD
HETATM   11  H   LIG     1      24.860  17.970  21.875  1.00  0.00     0.173 HD
ENDROOT
BRANCH   6  12
HETATM   12  C   LIG     1      22.789  21.056  19.063  1.00  0.00     0.056 C 
BRANCH  12  13
HETATM   13  C   LIG     1      23.147  20.216  17.857  1.00  0.00    -0.035 C 
HETATM   14  C   LIG     1      22.226  19.518  17.184  1.00  0.00     0.007 C 
ENDBRANCH  12  13
ENDBRANCH   6  12
BRANCH   6  15
HETATM   15  C   LIG     1      23.249  21.705  21.583  1.00  0.00     0.005 C 
HETATM   16  C   LIG     1      22.646  20.800  22.675  1.00  0.00     0.011 C 
HETATM   17  C   LIG     1      22.288  22.879  21.304  1.00  0.00     0.011 C 
ENDBRANCH   6  15
TORSDOF 3
ENDMDL
MODEL 20
REMARK VINA RESULT:      -3.3     16.020     17.784
REMARK  3 active torsions:
REMARK  status: ('A' for Active; 'I' for Inactive)
REMARK    1  A    between atoms: C_6  and  C_10 
REMARK    2  A    between atoms: C_6  and  C_7 
REMARK    3  A    between atoms: C_10  and  C_11 
ROOT
HETATM    1  O   LIG     1      25.198  22.806  24.978  1.00  0.00    -0.247 OA
HETATM    2  C   LIG     1      24.955  22.089  23.972  1.00  0.00     0.329 C 
HETATM    3  N   LIG     1      25.941  21.918  22.957  1.00  0.00    -0.278 N 
HETATM    4  N   LIG     1      23.710  21.404  23.860  1.00  0.00    -0.278 N 
HETATM    5  C   LIG     1      23.402  20.649  22.683  1.00  0.00     0.244 C 
HETATM    6  C   LIG     1      24.198  20.867  21.389  1.00  0.00     0.128 C 
HETATM    7  C   LIG     1      25.651  21.113  21.809  1.00  0.00     0.244 C 
HETATM    8  O   LIG     1      26.613  20.648  21.143  1.00  0.00    -0.272 OA
HETATM    9  O   LIG     1      22.410  19.870  22.708  1.00  0.00    -0.272 OA
HETATM   10  H   LIG     1      26.907  22.289  23.104  1.00  0.00     0.173 HD
HETATM   11  H   LIG     1      23.042  21.410  24.665  1.00  0.00     0.173 HD
ENDROOT
BRANCH   6  12
HETATM   12  C   LIG     1      24.077  19.569  20.511  1.00  0.00     0.056 C 
BRANCH  12  13
HETATM   13  C   LIG     1      23.501  19.760  19.125  1.00  0.00    -0.035 C 
HETATM   14  C   LIG     1      22.434  19.073  18.702  1.00  0.00     0.007 C 
ENDBRANCH  12  13
ENDBRANCH   6  12
BRANCH   6  15
HETATM   15  C   LIG     1      23.620  22.166  20.700  1.00  0.00     0.005 C 
HETATM   16  C   LIG     1      24.684  23.249  20.442  1.00  0.00     0.011 C 
HETATM   17  C   LIG     1      22.402  22.802  21.404  1.00  0.00     0.011 C 
ENDBRANCH   6  15
TORSDOF 3
ENDMDL
