REMARK  3 active torsions:
REMARK  status: ('A' for Active; 'I' for Inactive)
REMARK    1  A    between atoms: C_6  and  C_10 
REMARK    2  A    between atoms: C_6  and  C_7 
REMARK    3  A    between atoms: C_10  and  C_11 
ROOT
HETATM    1  O   LIG     1      -3.308   2.842  -1.134  1.00  0.00    -0.247 OA
HETATM    2  C   LIG     1      -2.283   2.287  -0.659  1.00  0.00     0.329 C 
HETATM    3  N   LIG     1      -1.088   2.203  -1.432  1.00  0.00    -0.278 N 
HETATM    4  N   LIG     1      -2.293   1.777   0.672  1.00  0.00    -0.278 N 
HETATM    5  C   LIG     1      -1.154   1.079   1.188  1.00  0.00     0.244 C 
HETATM    6  C   LIG     1      -0.082   0.529   0.237  1.00  0.00     0.128 C 
HETATM    7  C   LIG     1       0.068   1.557  -0.889  1.00  0.00     0.244 C 
HETATM    8  O   LIG     1       1.195   1.828  -1.382  1.00  0.00    -0.272 OA
HETATM    9  O   LIG     1      -1.097   0.850   2.427  1.00  0.00    -0.272 OA
HETATM   10  H   LIG     1      -1.024   2.708  -2.345  1.00  0.00     0.173 HD
HETATM   11  H   LIG     1      -3.115   1.962   1.291  1.00  0.00     0.173 HD
ENDROOT
BRANCH   6  12
HETATM   12  C   LIG     1       1.259   0.373   1.042  1.00  0.00     0.056 C 
BRANCH  12  13
HETATM   13  C   LIG     1       2.405  -0.277   0.299  1.00  0.00    -0.035 C 
HETATM   14  C   LIG     1       3.016  -1.373   0.761  1.00  0.00     0.007 C 
ENDBRANCH  12  13
ENDBRANCH   6  12
BRANCH   6  15
HETATM   15  C   LIG     1      -0.637  -0.827  -0.355  1.00  0.00     0.005 C 
HETATM   16  C   LIG     1      -0.760  -1.949   0.694  1.00  0.00     0.011 C 
HETATM   17  C   LIG     1       0.112  -1.364  -1.593  1.00  0.00     0.011 C 
ENDBRANCH   6  15
TORSDOF 3
