REMARK  5 active torsions:
REMARK  status: ('A' for Active; 'I' for Inactive)
REMARK    1  A    between atoms: C_6  and  C_12 
REMARK    2  A    between atoms: C_6  and  C_7 
REMARK    3  A    between atoms: C_7  and  C_9 
REMARK    4  A    between atoms: C_9  and  C_10 
REMARK    5  A    between atoms: C_12  and  C_13 
ROOT
HETATM    1  S   LIG     1      -2.407   4.546   0.841  1.00  0.00    -0.040 SA
HETATM    2  C   LIG     1      -2.037   2.982   0.529  1.00  0.00     0.181 C 
HETATM    3  N   LIG     1      -2.516   2.357  -0.657  1.00  0.00    -0.302 N 
HETATM    4  N   LIG     1      -1.286   2.224   1.469  1.00  0.00    -0.302 N 
HETATM    5  C   LIG     1      -1.014   0.839   1.242  1.00  0.00     0.242 C 
HETATM    6  C   LIG     1      -1.131   0.215  -0.155  1.00  0.00     0.128 C 
HETATM    7  C   LIG     1      -2.109   1.032  -1.014  1.00  0.00     0.242 C 
HETATM    8  O   LIG     1      -2.510   0.563  -2.115  1.00  0.00    -0.272 OA
HETATM    9  O   LIG     1      -0.630   0.141   2.219  1.00  0.00    -0.272 OA
HETATM   10  H   LIG     1      -3.139   2.889  -1.305  1.00  0.00     0.171 HD
HETATM   11  H   LIG     1      -1.015   2.654   2.383  1.00  0.00     0.171 HD
ENDROOT
BRANCH   6  12
HETATM   12  C   LIG     1      -1.783  -1.211  -0.043  1.00  0.00     0.056 C 
BRANCH  12  13
HETATM   13  C   LIG     1      -0.949  -2.286   0.606  1.00  0.00    -0.035 C 
HETATM   14  C   LIG     1      -1.278  -2.828   1.782  1.00  0.00     0.007 C 
ENDBRANCH  12  13
ENDBRANCH   6  12
BRANCH   6  15
HETATM   15  C   LIG     1       0.285   0.176  -0.877  1.00  0.00     0.009 C 
HETATM   16  C   LIG     1       0.647   1.524  -1.551  1.00  0.00     0.011 C 
BRANCH  15  17
HETATM   17  C   LIG     1       1.475  -0.238   0.045  1.00  0.00     0.005 C 
BRANCH  17  18
HETATM   18  C   LIG     1       2.591  -0.960  -0.728  1.00  0.00    -0.004 C 
HETATM   19  C   LIG     1       3.739  -1.353   0.197  1.00  0.00     0.005 C 
ENDBRANCH  17  18
ENDBRANCH  15  17
ENDBRANCH   6  15
TORSDOF 5
