REMARK  2 active torsions:
REMARK  status: ('A' for Active; 'I' for Inactive)
REMARK    1  A    between atoms: C_2  and  C_3 
REMARK    2  A    between atoms: C_3  and  C_8 
ROOT
HETATM    1  C   LIG     1      -0.383   0.571  -0.118  1.00  0.00     0.068 C 
HETATM    2  C   LIG     1      -1.101   0.261   1.229  1.00  0.00     0.033 C 
HETATM    3  C   LIG     1      -1.516  -1.212   1.348  1.00  0.00     0.105 C 
HETATM    4  C   LIG     1      -2.304  -1.650   0.148  1.00  0.00     0.224 C 
HETATM    5  O   LIG     1      -2.994  -2.702   0.208  1.00  0.00    -0.273 OA
HETATM    6  C   LIG     1      -1.347   0.193  -1.240  1.00  0.00     0.237 C 
HETATM    7  N   LIG     1      -2.262  -0.897  -1.069  1.00  0.00    -0.297 N 
HETATM    8  O   LIG     1      -1.296   0.782  -2.355  1.00  0.00    -0.272 OA
HETATM    9  H   LIG     1      -2.871  -1.183  -1.868  1.00  0.00     0.171 HD
ENDROOT
BRANCH   1  10
HETATM   10  C   LIG     1      -0.020   2.090  -0.204  1.00  0.00     0.020 C 
HETATM   11  C   LIG     1      -1.210   3.056  -0.109  1.00  0.00     0.006 C 
ENDBRANCH   1  10
BRANCH   1  12
HETATM   12  C   LIG     1       0.929  -0.243  -0.210  1.00  0.00    -0.040 A 
HETATM   13  C   LIG     1       1.918  -0.097   0.790  1.00  0.00     0.008 A 
HETATM   14  C   LIG     1       3.111  -0.822   0.736  1.00  0.00     0.001 A 
HETATM   15  C   LIG     1       3.348  -1.705  -0.316  1.00  0.00     0.000 A 
HETATM   16  C   LIG     1       2.392  -1.864  -1.318  1.00  0.00     0.001 A 
HETATM   17  C   LIG     1       1.195  -1.143  -1.272  1.00  0.00     0.008 A 
ENDBRANCH   1  12
TORSDOF 2
