MODEL 1
REMARK VINA RESULT:      -6.9      0.000      0.000
REMARK  4 active torsions:
REMARK  status: ('A' for Active; 'I' for Inactive)
REMARK    1  A    between atoms: C_6  and  C_11 
REMARK    2  A    between atoms: C_6  and  C_7 
REMARK    3  A    between atoms: C_7  and  C_8 
REMARK    4  A    between atoms: C_8  and  C_9 
ROOT
HETATM    1  O   LIG     1      18.687  39.917  21.866  1.00  0.00    -0.247 OA
HETATM    2  C   LIG     1      17.964  38.886  21.835  1.00  0.00     0.329 C 
HETATM    3  N   LIG     1      16.874  38.753  22.740  1.00  0.00    -0.278 N 
HETATM    4  N   LIG     1      18.222  37.864  20.879  1.00  0.00    -0.278 N 
HETATM    5  C   LIG     1      17.444  36.665  20.847  1.00  0.00     0.243 C 
HETATM    6  C   LIG     1      16.414  36.343  21.928  1.00  0.00     0.122 C 
HETATM    7  C   LIG     1      16.050  37.585  22.741  1.00  0.00     0.243 C 
HETATM    8  O   LIG     1      15.009  37.584  23.454  1.00  0.00    -0.272 OA
HETATM    9  O   LIG     1      17.674  35.820  19.938  1.00  0.00    -0.272 OA
HETATM   10  H   LIG     1      16.650  39.540  23.389  1.00  0.00     0.173 HD
HETATM   11  H   LIG     1      18.985  38.000  20.177  1.00  0.00     0.173 HD
ENDROOT
BRANCH   6  12
HETATM   12  C   LIG     1      17.079  35.287  22.861  1.00  0.00     0.024 C 
HETATM   13  C   LIG     1      17.210  35.683  24.337  1.00  0.00     0.007 C 
ENDBRANCH   6  12
BRANCH   6  14
HETATM   14  C   LIG     1      15.131  35.757  21.253  1.00  0.00     0.029 C 
BRANCH  14  15
HETATM   15  C   LIG     1      15.002  34.223  21.397  1.00  0.00     0.001 C 
BRANCH  15  16
HETATM   16  C   LIG     1      15.464  33.472  20.139  1.00  0.00    -0.005 C 
HETATM   17  C   LIG     1      14.912  32.049  20.064  1.00  0.00     0.005 C 
ENDBRANCH  15  16
ENDBRANCH  14  15
ENDBRANCH   6  14
TORSDOF 4
ENDMDL
MODEL 2
REMARK VINA RESULT:      -6.6      2.836      4.523
REMARK  4 active torsions:
REMARK  status: ('A' for Active; 'I' for Inactive)
REMARK    1  A    between atoms: C_6  and  C_11 
REMARK    2  A    between atoms: C_6  and  C_7 
REMARK    3  A    between atoms: C_7  and  C_8 
REMARK    4  A    between atoms: C_8  and  C_9 
ROOT
HETATM    1  O   LIG     1      16.980  34.343  26.253  1.00  0.00    -0.247 OA
HETATM    2  C   LIG     1      17.090  35.270  25.408  1.00  0.00     0.329 C 
HETATM    3  N   LIG     1      17.070  36.628  25.833  1.00  0.00    -0.278 N 
HETATM    4  N   LIG     1      17.259  34.960  24.029  1.00  0.00    -0.278 N 
HETATM    5  C   LIG     1      17.347  35.992  23.043  1.00  0.00     0.243 C 
HETATM    6  C   LIG     1      17.100  37.459  23.386  1.00  0.00     0.122 C 
HETATM    7  C   LIG     1      17.174  37.700  24.894  1.00  0.00     0.243 C 
HETATM    8  O   LIG     1      17.305  38.875  25.334  1.00  0.00    -0.272 OA
HETATM    9  O   LIG     1      17.560  35.663  21.843  1.00  0.00    -0.272 OA
HETATM   10  H   LIG     1      17.018  36.842  26.854  1.00  0.00     0.173 HD
HETATM   11  H   LIG     1      17.336  33.960  23.734  1.00  0.00     0.173 HD
ENDROOT
BRANCH   6  12
HETATM   12  C   LIG     1      15.665  37.790  22.876  1.00  0.00     0.024 C 
HETATM   13  C   LIG     1      14.940  36.661  22.133  1.00  0.00     0.007 C 
ENDBRANCH   6  12
BRANCH   6  14
HETATM   14  C   LIG     1      18.164  38.340  22.655  1.00  0.00     0.029 C 
BRANCH  14  15
HETATM   15  C   LIG     1      17.632  39.018  21.373  1.00  0.00     0.001 C 
BRANCH  15  16
HETATM   16  C   LIG     1      18.733  39.239  20.323  1.00  0.00    -0.005 C 
HETATM   17  C   LIG     1      19.252  37.931  19.727  1.00  0.00     0.005 C 
ENDBRANCH  15  16
ENDBRANCH  14  15
ENDBRANCH   6  14
TORSDOF 4
ENDMDL
MODEL 3
REMARK VINA RESULT:      -6.4      1.843      3.062
REMARK  4 active torsions:
REMARK  status: ('A' for Active; 'I' for Inactive)
REMARK    1  A    between atoms: C_6  and  C_11 
REMARK    2  A    between atoms: C_6  and  C_7 
REMARK    3  A    between atoms: C_7  and  C_8 
REMARK    4  A    between atoms: C_8  and  C_9 
ROOT
HETATM    1  O   LIG     1      17.614  37.789  26.259  1.00  0.00    -0.247 OA
HETATM    2  C   LIG     1      17.217  37.449  25.113  1.00  0.00     0.329 C 
HETATM    3  N   LIG     1      17.517  36.151  24.612  1.00  0.00    -0.278 N 
HETATM    4  N   LIG     1      16.450  38.354  24.327  1.00  0.00    -0.278 N 
HETATM    5  C   LIG     1      16.021  38.010  23.007  1.00  0.00     0.243 C 
HETATM    6  C   LIG     1      16.497  36.737  22.310  1.00  0.00     0.122 C 
HETATM    7  C   LIG     1      17.097  35.746  23.307  1.00  0.00     0.243 C 
HETATM    8  O   LIG     1      17.253  34.539  22.973  1.00  0.00    -0.272 OA
HETATM    9  O   LIG     1      15.289  38.825  22.379  1.00  0.00    -0.272 OA
HETATM   10  H   LIG     1      18.019  35.470  25.224  1.00  0.00     0.173 HD
HETATM   11  H   LIG     1      16.181  39.281  24.729  1.00  0.00     0.173 HD
ENDROOT
BRANCH   6  12
HETATM   12  C   LIG     1      17.592  37.181  21.294  1.00  0.00     0.024 C 
HETATM   13  C   LIG     1      18.306  38.501  21.610  1.00  0.00     0.007 C 
ENDBRANCH   6  12
BRANCH   6  14
HETATM   14  C   LIG     1      15.289  36.079  21.569  1.00  0.00     0.029 C 
BRANCH  14  15
HETATM   15  C   LIG     1      15.703  35.206  20.363  1.00  0.00     0.001 C 
BRANCH  15  16
HETATM   16  C   LIG     1      15.359  33.722  20.564  1.00  0.00    -0.005 C 
HETATM   17  C   LIG     1      15.362  32.931  19.256  1.00  0.00     0.005 C 
ENDBRANCH  15  16
ENDBRANCH  14  15
ENDBRANCH   6  14
TORSDOF 4
ENDMDL
MODEL 4
REMARK VINA RESULT:      -6.3      2.093      3.945
REMARK  4 active torsions:
REMARK  status: ('A' for Active; 'I' for Inactive)
REMARK    1  A    between atoms: C_6  and  C_11 
REMARK    2  A    between atoms: C_6  and  C_7 
REMARK    3  A    between atoms: C_7  and  C_8 
REMARK    4  A    between atoms: C_8  and  C_9 
ROOT
HETATM    1  O   LIG     1      17.106  38.765  26.043  1.00  0.00    -0.247 OA
HETATM    2  C   LIG     1      17.123  38.171  24.932  1.00  0.00     0.329 C 
HETATM    3  N   LIG     1      17.187  38.921  23.724  1.00  0.00    -0.278 N 
HETATM    4  N   LIG     1      17.101  36.749  24.884  1.00  0.00    -0.278 N 
HETATM    5  C   LIG     1      17.079  36.049  23.638  1.00  0.00     0.243 C 
HETATM    6  C   LIG     1      16.910  36.778  22.306  1.00  0.00     0.122 C 
HETATM    7  C   LIG     1      17.188  38.274  22.450  1.00  0.00     0.243 C 
HETATM    8  O   LIG     1      17.401  38.973  21.421  1.00  0.00    -0.272 OA
HETATM    9  O   LIG     1      17.124  34.788  23.653  1.00  0.00    -0.272 OA
HETATM   10  H   LIG     1      17.275  39.961  23.773  1.00  0.00     0.173 HD
HETATM   11  H   LIG     1      17.118  36.206  25.778  1.00  0.00     0.173 HD
ENDROOT
BRANCH   6  12
HETATM   12  C   LIG     1      15.427  36.563  21.877  1.00  0.00     0.024 C 
HETATM   13  C   LIG     1      15.134  35.275  21.098  1.00  0.00     0.007 C 
ENDBRANCH   6  12
BRANCH   6  14
HETATM   14  C   LIG     1      17.887  36.156  21.256  1.00  0.00     0.029 C 
BRANCH  14  15
HETATM   15  C   LIG     1      18.033  37.000  19.970  1.00  0.00     0.001 C 
BRANCH  15  16
HETATM   16  C   LIG     1      19.476  37.025  19.443  1.00  0.00    -0.005 C 
HETATM   17  C   LIG     1      20.114  38.411  19.532  1.00  0.00     0.005 C 
ENDBRANCH  15  16
ENDBRANCH  14  15
ENDBRANCH   6  14
TORSDOF 4
ENDMDL
MODEL 5
REMARK VINA RESULT:      -6.1      2.066      4.789
REMARK  4 active torsions:
REMARK  status: ('A' for Active; 'I' for Inactive)
REMARK    1  A    between atoms: C_6  and  C_11 
REMARK    2  A    between atoms: C_6  and  C_7 
REMARK    3  A    between atoms: C_7  and  C_8 
REMARK    4  A    between atoms: C_8  and  C_9 
ROOT
HETATM    1  O   LIG     1      14.353  34.053  21.499  1.00  0.00    -0.247 OA
HETATM    2  C   LIG     1      15.127  35.042  21.587  1.00  0.00     0.329 C 
HETATM    3  N   LIG     1      16.424  34.987  21.003  1.00  0.00    -0.278 N 
HETATM    4  N   LIG     1      14.698  36.225  22.252  1.00  0.00    -0.278 N 
HETATM    5  C   LIG     1      15.569  37.349  22.402  1.00  0.00     0.243 C 
HETATM    6  C   LIG     1      17.045  37.284  22.012  1.00  0.00     0.122 C 
HETATM    7  C   LIG     1      17.330  36.087  21.105  1.00  0.00     0.243 C 
HETATM    8  O   LIG     1      18.402  36.047  20.440  1.00  0.00    -0.272 OA
HETATM    9  O   LIG     1      15.116  38.395  22.944  1.00  0.00    -0.272 OA
HETATM   10  H   LIG     1      16.702  34.141  20.456  1.00  0.00     0.173 HD
HETATM   11  H   LIG     1      13.722  36.279  22.622  1.00  0.00     0.173 HD
ENDROOT
BRANCH   6  12
HETATM   12  C   LIG     1      17.840  37.128  23.344  1.00  0.00     0.024 C 
HETATM   13  C   LIG     1      17.296  36.092  24.334  1.00  0.00     0.007 C 
ENDBRANCH   6  12
BRANCH   6  14
HETATM   14  C   LIG     1      17.439  38.609  21.283  1.00  0.00     0.029 C 
BRANCH  14  15
HETATM   15  C   LIG     1      18.873  39.088  21.603  1.00  0.00     0.001 C 
BRANCH  15  16
HETATM   16  C   LIG     1      19.782  39.094  20.364  1.00  0.00    -0.005 C 
HETATM   17  C   LIG     1      18.996  39.084  19.053  1.00  0.00     0.005 C 
ENDBRANCH  15  16
ENDBRANCH  14  15
ENDBRANCH   6  14
TORSDOF 4
ENDMDL
MODEL 6
REMARK VINA RESULT:      -6.0      4.155      6.301
REMARK  4 active torsions:
REMARK  status: ('A' for Active; 'I' for Inactive)
REMARK    1  A    between atoms: C_6  and  C_11 
REMARK    2  A    between atoms: C_6  and  C_7 
REMARK    3  A    between atoms: C_7  and  C_8 
REMARK    4  A    between atoms: C_8  and  C_9 
ROOT
HETATM    1  O   LIG     1      16.236  35.083  20.786  1.00  0.00    -0.247 OA
HETATM    2  C   LIG     1      15.755  34.369  19.867  1.00  0.00     0.329 C 
HETATM    3  N   LIG     1      15.435  33.005  20.118  1.00  0.00    -0.278 N 
HETATM    4  N   LIG     1      15.511  34.931  18.582  1.00  0.00    -0.278 N 
HETATM    5  C   LIG     1      15.004  34.135  17.509  1.00  0.00     0.243 C 
HETATM    6  C   LIG     1      14.856  32.619  17.628  1.00  0.00     0.122 C 
HETATM    7  C   LIG     1      14.907  32.166  19.087  1.00  0.00     0.243 C 
HETATM    8  O   LIG     1      14.497  31.015  19.401  1.00  0.00    -0.272 OA
HETATM    9  O   LIG     1      14.745  34.698  16.409  1.00  0.00    -0.272 OA
HETATM   10  H   LIG     1      15.551  32.622  21.083  1.00  0.00     0.173 HD
HETATM   11  H   LIG     1      15.690  35.949  18.426  1.00  0.00     0.173 HD
ENDROOT
BRANCH   6  12
HETATM   12  C   LIG     1      16.057  32.002  16.850  1.00  0.00     0.024 C 
HETATM   13  C   LIG     1      16.245  32.492  15.408  1.00  0.00     0.007 C 
ENDBRANCH   6  12
BRANCH   6  14
HETATM   14  C   LIG     1      13.498  32.186  16.986  1.00  0.00     0.029 C 
BRANCH  14  15
HETATM   15  C   LIG     1      13.426  30.680  16.647  1.00  0.00     0.001 C 
BRANCH  15  16
HETATM   16  C   LIG     1      13.013  30.424  15.189  1.00  0.00    -0.005 C 
HETATM   17  C   LIG     1      14.104  29.725  14.379  1.00  0.00     0.005 C 
ENDBRANCH  15  16
ENDBRANCH  14  15
ENDBRANCH   6  14
TORSDOF 4
ENDMDL
MODEL 7
REMARK VINA RESULT:      -5.6      4.396      6.733
REMARK  4 active torsions:
REMARK  status: ('A' for Active; 'I' for Inactive)
REMARK    1  A    between atoms: C_6  and  C_11 
REMARK    2  A    between atoms: C_6  and  C_7 
REMARK    3  A    between atoms: C_7  and  C_8 
REMARK    4  A    between atoms: C_8  and  C_9 
ROOT
HETATM    1  O   LIG     1      15.441  35.094  20.678  1.00  0.00    -0.247 OA
HETATM    2  C   LIG     1      15.318  34.354  19.666  1.00  0.00     0.329 C 
HETATM    3  N   LIG     1      15.587  34.871  18.368  1.00  0.00    -0.278 N 
HETATM    4  N   LIG     1      14.931  32.993  19.822  1.00  0.00    -0.278 N 
HETATM    5  C   LIG     1      14.744  32.141  18.689  1.00  0.00     0.243 C 
HETATM    6  C   LIG     1      14.785  32.679  17.260  1.00  0.00     0.122 C 
HETATM    7  C   LIG     1      15.437  34.060  17.201  1.00  0.00     0.243 C 
HETATM    8  O   LIG     1      15.835  34.518  16.095  1.00  0.00    -0.272 OA
HETATM    9  O   LIG     1      14.463  30.927  18.887  1.00  0.00    -0.272 OA
HETATM   10  H   LIG     1      15.939  35.851  18.272  1.00  0.00     0.173 HD
HETATM   11  H   LIG     1      14.797  32.605  20.784  1.00  0.00     0.173 HD
ENDROOT
BRANCH   6  12
HETATM   12  C   LIG     1      13.302  32.783  16.792  1.00  0.00     0.024 C 
HETATM   13  C   LIG     1      12.604  31.455  16.471  1.00  0.00     0.007 C 
ENDBRANCH   6  12
BRANCH   6  14
HETATM   14  C   LIG     1      15.581  31.678  16.360  1.00  0.00     0.029 C 
BRANCH  14  15
HETATM   15  C   LIG     1      15.820  32.194  14.923  1.00  0.00     0.001 C 
BRANCH  15  16
HETATM   16  C   LIG     1      15.474  31.144  13.856  1.00  0.00    -0.005 C 
HETATM   17  C   LIG     1      15.236  29.755  14.448  1.00  0.00     0.005 C 
ENDBRANCH  15  16
ENDBRANCH  14  15
ENDBRANCH   6  14
TORSDOF 4
ENDMDL
MODEL 8
REMARK VINA RESULT:      -4.7      2.131      4.108
REMARK  4 active torsions:
REMARK  status: ('A' for Active; 'I' for Inactive)
REMARK    1  A    between atoms: C_6  and  C_11 
REMARK    2  A    between atoms: C_6  and  C_7 
REMARK    3  A    between atoms: C_7  and  C_8 
REMARK    4  A    between atoms: C_8  and  C_9 
ROOT
HETATM    1  O   LIG     1      14.837  34.748  18.877  1.00  0.00    -0.247 OA
HETATM    2  C   LIG     1      15.388  35.328  19.850  1.00  0.00     0.329 C 
HETATM    3  N   LIG     1      14.592  35.883  20.891  1.00  0.00    -0.278 N 
HETATM    4  N   LIG     1      16.807  35.409  19.921  1.00  0.00    -0.278 N 
HETATM    5  C   LIG     1      17.458  36.096  20.993  1.00  0.00     0.243 C 
HETATM    6  C   LIG     1      16.677  36.915  22.019  1.00  0.00     0.122 C 
HETATM    7  C   LIG     1      15.189  36.564  21.997  1.00  0.00     0.243 C 
HETATM    8  O   LIG     1      14.452  36.900  22.965  1.00  0.00    -0.272 OA
HETATM    9  O   LIG     1      18.719  36.082  21.041  1.00  0.00    -0.272 OA
HETATM   10  H   LIG     1      13.555  35.756  20.865  1.00  0.00     0.173 HD
HETATM   11  H   LIG     1      17.384  34.943  19.184  1.00  0.00     0.173 HD
ENDROOT
BRANCH   6  12
HETATM   12  C   LIG     1      16.865  38.409  21.617  1.00  0.00     0.024 C 
HETATM   13  C   LIG     1      18.037  39.140  22.283  1.00  0.00     0.007 C 
ENDBRANCH   6  12
BRANCH   6  14
HETATM   14  C   LIG     1      17.264  36.645  23.442  1.00  0.00     0.029 C 
BRANCH  14  15
HETATM   15  C   LIG     1      17.062  35.194  23.931  1.00  0.00     0.001 C 
BRANCH  15  16
HETATM   16  C   LIG     1      17.523  34.991  25.383  1.00  0.00    -0.005 C 
HETATM   17  C   LIG     1      17.950  36.296  26.055  1.00  0.00     0.005 C 
ENDBRANCH  15  16
ENDBRANCH  14  15
ENDBRANCH   6  14
TORSDOF 4
ENDMDL
MODEL 9
REMARK VINA RESULT:      -4.4      5.573      8.172
REMARK  4 active torsions:
REMARK  status: ('A' for Active; 'I' for Inactive)
REMARK    1  A    between atoms: C_6  and  C_11 
REMARK    2  A    between atoms: C_6  and  C_7 
REMARK    3  A    between atoms: C_7  and  C_8 
REMARK    4  A    between atoms: C_8  and  C_9 
ROOT
HETATM    1  O   LIG     1      15.176  30.165  13.156  1.00  0.00    -0.247 OA
HETATM    2  C   LIG     1      15.122  30.738  14.275  1.00  0.00     0.329 C 
HETATM    3  N   LIG     1      14.238  30.256  15.281  1.00  0.00    -0.278 N 
HETATM    4  N   LIG     1      15.962  31.856  14.545  1.00  0.00    -0.278 N 
HETATM    5  C   LIG     1      15.893  32.551  15.792  1.00  0.00     0.243 C 
HETATM    6  C   LIG     1      14.814  32.244  16.829  1.00  0.00     0.122 C 
HETATM    7  C   LIG     1      14.141  30.899  16.554  1.00  0.00     0.243 C 
HETATM    8  O   LIG     1      13.461  30.343  17.458  1.00  0.00    -0.272 OA
HETATM    9  O   LIG     1      16.704  33.495  16.003  1.00  0.00    -0.272 OA
HETATM   10  H   LIG     1      13.678  29.392  15.098  1.00  0.00     0.173 HD
HETATM   11  H   LIG     1      16.653  32.163  13.823  1.00  0.00     0.173 HD
ENDROOT
BRANCH   6  12
HETATM   12  C   LIG     1      13.760  33.386  16.710  1.00  0.00     0.024 C 
HETATM   13  C   LIG     1      12.302  32.940  16.545  1.00  0.00     0.007 C 
ENDBRANCH   6  12
BRANCH   6  14
HETATM   14  C   LIG     1      15.460  32.233  18.252  1.00  0.00     0.029 C 
BRANCH  14  15
HETATM   15  C   LIG     1      15.259  33.550  19.034  1.00  0.00     0.001 C 
BRANCH  15  16
HETATM   16  C   LIG     1      15.259  33.338  20.556  1.00  0.00    -0.005 C 
HETATM   17  C   LIG     1      15.623  34.605  21.330  1.00  0.00     0.005 C 
ENDBRANCH  15  16
ENDBRANCH  14  15
ENDBRANCH   6  14
TORSDOF 4
ENDMDL
MODEL 10
REMARK VINA RESULT:      -4.3      9.663     11.599
REMARK  4 active torsions:
REMARK  status: ('A' for Active; 'I' for Inactive)
REMARK    1  A    between atoms: C_6  and  C_11 
REMARK    2  A    between atoms: C_6  and  C_7 
REMARK    3  A    between atoms: C_7  and  C_8 
REMARK    4  A    between atoms: C_8  and  C_9 
ROOT
HETATM    1  O   LIG     1      16.968  33.735  13.332  1.00  0.00    -0.247 OA
HETATM    2  C   LIG     1      18.086  33.954  12.796  1.00  0.00     0.329 C 
HETATM    3  N   LIG     1      18.167  34.739  11.612  1.00  0.00    -0.278 N 
HETATM    4  N   LIG     1      19.273  33.436  13.387  1.00  0.00    -0.278 N 
HETATM    5  C   LIG     1      20.551  33.634  12.779  1.00  0.00     0.243 C 
HETATM    6  C   LIG     1      20.698  34.261  11.394  1.00  0.00     0.122 C 
HETATM    7  C   LIG     1      19.421  34.987  10.972  1.00  0.00     0.243 C 
HETATM    8  O   LIG     1      19.456  35.813  10.018  1.00  0.00    -0.272 OA
HETATM    9  O   LIG     1      21.577  33.208  13.378  1.00  0.00    -0.272 OA
HETATM   10  H   LIG     1      17.299  35.174  11.227  1.00  0.00     0.173 HD
HETATM   11  H   LIG     1      19.209  32.914  14.291  1.00  0.00     0.173 HD
ENDROOT
BRANCH   6  12
HETATM   12  C   LIG     1      20.976  33.083  10.411  1.00  0.00     0.024 C 
HETATM   13  C   LIG     1      20.196  31.789  10.676  1.00  0.00     0.007 C 
ENDBRANCH   6  12
BRANCH   6  14
HETATM   14  C   LIG     1      21.897  35.263  11.410  1.00  0.00     0.029 C 
BRANCH  14  15
HETATM   15  C   LIG     1      22.426  35.572  12.829  1.00  0.00     0.001 C 
BRANCH  15  16
HETATM   16  C   LIG     1      23.841  36.172  12.813  1.00  0.00    -0.005 C 
HETATM   17  C   LIG     1      24.116  37.070  14.018  1.00  0.00     0.005 C 
ENDBRANCH  15  16
ENDBRANCH  14  15
ENDBRANCH   6  14
TORSDOF 4
ENDMDL
MODEL 11
REMARK VINA RESULT:      -4.0     15.270     16.942
REMARK  4 active torsions:
REMARK  status: ('A' for Active; 'I' for Inactive)
REMARK    1  A    between atoms: C_6  and  C_11 
REMARK    2  A    between atoms: C_6  and  C_7 
REMARK    3  A    between atoms: C_7  and  C_8 
REMARK    4  A    between atoms: C_8  and  C_9 
ROOT
HETATM    1  O   LIG     1      26.430  23.171  22.884  1.00  0.00    -0.247 OA
HETATM    2  C   LIG     1      25.719  22.635  21.994  1.00  0.00     0.329 C 
HETATM    3  N   LIG     1      25.702  23.173  20.676  1.00  0.00    -0.278 N 
HETATM    4  N   LIG     1      24.949  21.477  22.298  1.00  0.00    -0.278 N 
HETATM    5  C   LIG     1      24.102  20.872  21.318  1.00  0.00     0.243 C 
HETATM    6  C   LIG     1      23.849  21.521  19.958  1.00  0.00     0.122 C 
HETATM    7  C   LIG     1      24.890  22.598  19.651  1.00  0.00     0.243 C 
HETATM    8  O   LIG     1      25.029  23.015  18.468  1.00  0.00    -0.272 OA
HETATM    9  O   LIG     1      23.490  19.811  21.622  1.00  0.00    -0.272 OA
HETATM   10  H   LIG     1      26.326  23.979  20.446  1.00  0.00     0.173 HD
HETATM   11  H   LIG     1      25.017  21.053  23.250  1.00  0.00     0.173 HD
ENDROOT
BRANCH   6  12
HETATM   12  C   LIG     1      22.436  22.173  20.043  1.00  0.00     0.024 C 
HETATM   13  C   LIG     1      22.134  22.956  21.327  1.00  0.00     0.007 C 
ENDBRANCH   6  12
BRANCH   6  14
HETATM   14  C   LIG     1      23.884  20.418  18.851  1.00  0.00     0.029 C 
BRANCH  14  15
HETATM   15  C   LIG     1      22.671  20.462  17.895  1.00  0.00     0.001 C 
BRANCH  15  16
HETATM   16  C   LIG     1      22.104  19.065  17.597  1.00  0.00    -0.005 C 
HETATM   17  C   LIG     1      21.984  18.196  18.849  1.00  0.00     0.005 C 
ENDBRANCH  15  16
ENDBRANCH  14  15
ENDBRANCH   6  14
TORSDOF 4
ENDMDL
MODEL 12
REMARK VINA RESULT:      -4.0     15.629     17.210
REMARK  4 active torsions:
REMARK  status: ('A' for Active; 'I' for Inactive)
REMARK    1  A    between atoms: C_6  and  C_11 
REMARK    2  A    between atoms: C_6  and  C_7 
REMARK    3  A    between atoms: C_7  and  C_8 
REMARK    4  A    between atoms: C_8  and  C_9 
ROOT
HETATM    1  O   LIG     1      22.444  18.649  19.259  1.00  0.00    -0.247 OA
HETATM    2  C   LIG     1      23.164  19.658  19.484  1.00  0.00     0.329 C 
HETATM    3  N   LIG     1      23.990  19.700  20.642  1.00  0.00    -0.278 N 
HETATM    4  N   LIG     1      23.168  20.748  18.569  1.00  0.00    -0.278 N 
HETATM    5  C   LIG     1      23.943  21.923  18.819  1.00  0.00     0.243 C 
HETATM    6  C   LIG     1      24.670  22.143  20.144  1.00  0.00     0.122 C 
HETATM    7  C   LIG     1      24.802  20.840  20.932  1.00  0.00     0.243 C 
HETATM    8  O   LIG     1      25.628  20.764  21.883  1.00  0.00    -0.272 OA
HETATM    9  O   LIG     1      23.959  22.832  17.944  1.00  0.00    -0.272 OA
HETATM   10  H   LIG     1      24.034  18.865  21.269  1.00  0.00     0.173 HD
HETATM   11  H   LIG     1      22.606  20.681  17.690  1.00  0.00     0.173 HD
ENDROOT
BRANCH   6  12
HETATM   12  C   LIG     1      23.803  23.155  20.953  1.00  0.00     0.024 C 
HETATM   13  C   LIG     1      22.391  22.684  21.322  1.00  0.00     0.007 C 
ENDBRANCH   6  12
BRANCH   6  14
HETATM   14  C   LIG     1      26.088  22.735  19.857  1.00  0.00     0.029 C 
BRANCH  14  15
HETATM   15  C   LIG     1      26.248  24.205  20.306  1.00  0.00     0.001 C 
BRANCH  15  16
HETATM   16  C   LIG     1      26.383  25.172  19.119  1.00  0.00    -0.005 C 
HETATM   17  C   LIG     1      27.096  24.544  17.922  1.00  0.00     0.005 C 
ENDBRANCH  15  16
ENDBRANCH  14  15
ENDBRANCH   6  14
TORSDOF 4
ENDMDL
MODEL 13
REMARK VINA RESULT:      -4.0     15.642     17.334
REMARK  4 active torsions:
REMARK  status: ('A' for Active; 'I' for Inactive)
REMARK    1  A    between atoms: C_6  and  C_11 
REMARK    2  A    between atoms: C_6  and  C_7 
REMARK    3  A    between atoms: C_7  and  C_8 
REMARK    4  A    between atoms: C_8  and  C_9 
ROOT
HETATM    1  O   LIG     1      27.076  19.436  17.146  1.00  0.00    -0.247 OA
HETATM    2  C   LIG     1      26.665  20.446  17.777  1.00  0.00     0.329 C 
HETATM    3  N   LIG     1      25.347  20.935  17.556  1.00  0.00    -0.278 N 
HETATM    4  N   LIG     1      27.509  21.084  18.728  1.00  0.00    -0.278 N 
HETATM    5  C   LIG     1      27.084  22.255  19.429  1.00  0.00     0.243 C 
HETATM    6  C   LIG     1      25.783  22.976  19.082  1.00  0.00     0.122 C 
HETATM    7  C   LIG     1      24.861  22.090  18.244  1.00  0.00     0.243 C 
HETATM    8  O   LIG     1      23.641  22.389  18.128  1.00  0.00    -0.272 OA
HETATM    9  O   LIG     1      27.848  22.743  20.308  1.00  0.00    -0.272 OA
HETATM   10  H   LIG     1      24.711  20.417  16.909  1.00  0.00     0.173 HD
HETATM   11  H   LIG     1      28.452  20.679  18.929  1.00  0.00     0.173 HD
ENDROOT
BRANCH   6  12
HETATM   12  C   LIG     1      26.190  24.233  18.255  1.00  0.00     0.024 C 
HETATM   13  C   LIG     1      26.185  25.566  19.013  1.00  0.00     0.007 C 
ENDBRANCH   6  12
BRANCH   6  14
HETATM   14  C   LIG     1      25.061  23.392  20.404  1.00  0.00     0.029 C 
BRANCH  14  15
HETATM   15  C   LIG     1      24.584  22.193  21.253  1.00  0.00     0.001 C 
BRANCH  15  16
HETATM   16  C   LIG     1      23.347  22.527  22.102  1.00  0.00    -0.005 C 
HETATM   17  C   LIG     1      22.107  22.810  21.254  1.00  0.00     0.005 C 
ENDBRANCH  15  16
ENDBRANCH  14  15
ENDBRANCH   6  14
TORSDOF 4
ENDMDL
