MODEL 1
REMARK VINA RESULT:      -8.8      0.000      0.000
REMARK  2 active torsions:
REMARK  status: ('A' for Active; 'I' for Inactive)
REMARK    1  A    between atoms: C_2  and  C_3 
REMARK    2  A    between atoms: C_3  and  C_8 
ROOT
HETATM    1  C   LIG     1      17.104  37.321  22.821  1.00  0.00     0.068 C 
HETATM    2  C   LIG     1      17.281  35.811  23.156  1.00  0.00     0.033 C 
HETATM    3  C   LIG     1      16.750  34.896  22.043  1.00  0.00     0.105 C 
HETATM    4  C   LIG     1      15.340  35.254  21.677  1.00  0.00     0.224 C 
HETATM    5  O   LIG     1      14.637  34.432  21.032  1.00  0.00    -0.273 OA
HETATM    6  C   LIG     1      15.613  37.561  22.596  1.00  0.00     0.237 C 
HETATM    7  N   LIG     1      14.793  36.529  22.034  1.00  0.00    -0.297 N 
HETATM    8  O   LIG     1      15.102  38.691  22.829  1.00  0.00    -0.272 OA
HETATM    9  H   LIG     1      13.788  36.729  21.828  1.00  0.00     0.171 HD
ENDROOT
BRANCH   1  10
HETATM   10  C   LIG     1      17.622  38.205  24.003  1.00  0.00     0.020 C 
HETATM   11  C   LIG     1      17.590  37.537  25.386  1.00  0.00     0.006 C 
ENDBRANCH   1  10
BRANCH   1  12
HETATM   12  C   LIG     1      17.924  37.677  21.559  1.00  0.00    -0.040 A 
HETATM   13  C   LIG     1      18.430  38.987  21.396  1.00  0.00     0.008 A 
HETATM   14  C   LIG     1      19.177  39.336  20.269  1.00  0.00     0.001 A 
HETATM   15  C   LIG     1      19.435  38.391  19.277  1.00  0.00     0.000 A 
HETATM   16  C   LIG     1      18.943  37.094  19.410  1.00  0.00     0.001 A 
HETATM   17  C   LIG     1      18.194  36.735  20.535  1.00  0.00     0.008 A 
ENDBRANCH   1  12
TORSDOF 2
ENDMDL
MODEL 2
REMARK VINA RESULT:      -8.6      1.992      4.560
REMARK  2 active torsions:
REMARK  status: ('A' for Active; 'I' for Inactive)
REMARK    1  A    between atoms: C_2  and  C_3 
REMARK    2  A    between atoms: C_3  and  C_8 
ROOT
HETATM    1  C   LIG     1      16.422  37.132  22.350  1.00  0.00     0.068 C 
HETATM    2  C   LIG     1      17.191  36.515  21.144  1.00  0.00     0.033 C 
HETATM    3  C   LIG     1      18.647  36.995  21.069  1.00  0.00     0.105 C 
HETATM    4  C   LIG     1      18.725  38.494  21.111  1.00  0.00     0.224 C 
HETATM    5  O   LIG     1      19.781  39.071  20.741  1.00  0.00    -0.273 OA
HETATM    6  C   LIG     1      16.479  38.649  22.192  1.00  0.00     0.237 C 
HETATM    7  N   LIG     1      17.620  39.270  21.587  1.00  0.00    -0.297 N 
HETATM    8  O   LIG     1      15.561  39.378  22.661  1.00  0.00    -0.272 OA
HETATM    9  H   LIG     1      17.672  40.312  21.543  1.00  0.00     0.171 HD
ENDROOT
BRANCH   1  10
HETATM   10  C   LIG     1      14.936  36.643  22.354  1.00  0.00     0.020 C 
HETATM   11  C   LIG     1      14.574  35.633  21.256  1.00  0.00     0.006 C 
ENDBRANCH   1  10
BRANCH   1  12
HETATM   12  C   LIG     1      17.080  36.682  23.675  1.00  0.00    -0.040 A 
HETATM   13  C   LIG     1      17.086  35.313  24.028  1.00  0.00     0.008 A 
HETATM   14  C   LIG     1      17.677  34.876  25.216  1.00  0.00     0.001 A 
HETATM   15  C   LIG     1      18.271  35.793  26.081  1.00  0.00     0.000 A 
HETATM   16  C   LIG     1      18.276  37.149  25.760  1.00  0.00     0.001 A 
HETATM   17  C   LIG     1      17.687  37.595  24.573  1.00  0.00     0.008 A 
ENDBRANCH   1  12
TORSDOF 2
ENDMDL
MODEL 3
REMARK VINA RESULT:      -8.5      1.983      4.398
REMARK  2 active torsions:
REMARK  status: ('A' for Active; 'I' for Inactive)
REMARK    1  A    between atoms: C_2  and  C_3 
REMARK    2  A    between atoms: C_3  and  C_8 
ROOT
HETATM    1  C   LIG     1      16.404  37.104  22.321  1.00  0.00     0.068 C 
HETATM    2  C   LIG     1      17.181  36.509  21.110  1.00  0.00     0.033 C 
HETATM    3  C   LIG     1      18.638  36.989  21.054  1.00  0.00     0.105 C 
HETATM    4  C   LIG     1      18.717  38.486  21.123  1.00  0.00     0.224 C 
HETATM    5  O   LIG     1      19.776  39.070  20.771  1.00  0.00    -0.273 OA
HETATM    6  C   LIG     1      16.464  38.624  22.192  1.00  0.00     0.237 C 
HETATM    7  N   LIG     1      17.610  39.255  21.606  1.00  0.00    -0.297 N 
HETATM    8  O   LIG     1      15.543  39.345  22.668  1.00  0.00    -0.272 OA
HETATM    9  H   LIG     1      17.663  40.298  21.581  1.00  0.00     0.171 HD
ENDROOT
BRANCH   1  10
HETATM   10  C   LIG     1      14.918  36.617  22.307  1.00  0.00     0.020 C 
HETATM   11  C   LIG     1      14.581  35.568  21.237  1.00  0.00     0.006 C 
ENDBRANCH   1  10
BRANCH   1  12
HETATM   12  C   LIG     1      17.053  36.630  23.643  1.00  0.00    -0.040 A 
HETATM   13  C   LIG     1      17.626  37.576  24.523  1.00  0.00     0.008 A 
HETATM   14  C   LIG     1      18.216  37.178  25.726  1.00  0.00     0.001 A 
HETATM   15  C   LIG     1      18.252  35.830  26.077  1.00  0.00     0.000 A 
HETATM   16  C   LIG     1      17.699  34.875  25.224  1.00  0.00     0.001 A 
HETATM   17  C   LIG     1      17.107  35.265  24.019  1.00  0.00     0.008 A 
ENDBRANCH   1  12
TORSDOF 2
ENDMDL
MODEL 4
REMARK VINA RESULT:      -8.5      1.648      3.525
REMARK  2 active torsions:
REMARK  status: ('A' for Active; 'I' for Inactive)
REMARK    1  A    between atoms: C_2  and  C_3 
REMARK    2  A    between atoms: C_3  and  C_8 
ROOT
HETATM    1  C   LIG     1      16.569  36.632  21.839  1.00  0.00     0.068 C 
HETATM    2  C   LIG     1      15.536  37.665  22.378  1.00  0.00     0.033 C 
HETATM    3  C   LIG     1      16.145  38.621  23.413  1.00  0.00     0.105 C 
HETATM    4  C   LIG     1      16.842  37.862  24.505  1.00  0.00     0.224 C 
HETATM    5  O   LIG     1      17.115  38.442  25.589  1.00  0.00    -0.273 OA
HETATM    6  C   LIG     1      17.098  35.854  23.041  1.00  0.00     0.237 C 
HETATM    7  N   LIG     1      17.218  36.493  24.318  1.00  0.00    -0.297 N 
HETATM    8  O   LIG     1      17.508  34.668  22.907  1.00  0.00    -0.272 OA
HETATM    9  H   LIG     1      17.640  35.966  25.116  1.00  0.00     0.171 HD
ENDROOT
BRANCH   1  10
HETATM   10  C   LIG     1      15.886  35.660  20.821  1.00  0.00     0.020 C 
HETATM   11  C   LIG     1      14.606  34.976  21.324  1.00  0.00     0.006 C 
ENDBRANCH   1  10
BRANCH   1  12
HETATM   12  C   LIG     1      17.712  37.372  21.104  1.00  0.00    -0.040 A 
HETATM   13  C   LIG     1      18.477  36.691  20.130  1.00  0.00     0.008 A 
HETATM   14  C   LIG     1      19.513  37.334  19.447  1.00  0.00     0.001 A 
HETATM   15  C   LIG     1      19.813  38.667  19.722  1.00  0.00     0.000 A 
HETATM   16  C   LIG     1      19.077  39.360  20.682  1.00  0.00     0.001 A 
HETATM   17  C   LIG     1      18.039  38.725  21.370  1.00  0.00     0.008 A 
ENDBRANCH   1  12
TORSDOF 2
ENDMDL
MODEL 5
REMARK VINA RESULT:      -8.0      1.671      4.005
REMARK  2 active torsions:
REMARK  status: ('A' for Active; 'I' for Inactive)
REMARK    1  A    between atoms: C_2  and  C_3 
REMARK    2  A    between atoms: C_3  and  C_8 
ROOT
HETATM    1  C   LIG     1      17.340  37.599  22.558  1.00  0.00     0.068 C 
HETATM    2  C   LIG     1      15.892  38.171  22.511  1.00  0.00     0.033 C 
HETATM    3  C   LIG     1      14.824  37.071  22.585  1.00  0.00     0.105 C 
HETATM    4  C   LIG     1      15.069  36.009  21.554  1.00  0.00     0.224 C 
HETATM    5  O   LIG     1      14.142  35.213  21.249  1.00  0.00    -0.273 OA
HETATM    6  C   LIG     1      17.482  36.634  21.384  1.00  0.00     0.237 C 
HETATM    7  N   LIG     1      16.352  35.877  20.931  1.00  0.00    -0.297 N 
HETATM    8  O   LIG     1      18.608  36.432  20.851  1.00  0.00    -0.272 OA
HETATM    9  H   LIG     1      16.479  35.175  20.168  1.00  0.00     0.171 HD
ENDROOT
BRANCH   1  10
HETATM   10  C   LIG     1      18.386  38.756  22.438  1.00  0.00     0.020 C 
HETATM   11  C   LIG     1      18.438  39.455  21.071  1.00  0.00     0.006 C 
ENDBRANCH   1  10
BRANCH   1  12
HETATM   12  C   LIG     1      17.573  36.878  23.906  1.00  0.00    -0.040 A 
HETATM   13  C   LIG     1      18.075  37.602  25.013  1.00  0.00     0.008 A 
HETATM   14  C   LIG     1      18.292  36.979  26.244  1.00  0.00     0.001 A 
HETATM   15  C   LIG     1      18.018  35.621  26.401  1.00  0.00     0.000 A 
HETATM   16  C   LIG     1      17.528  34.883  25.325  1.00  0.00     0.001 A 
HETATM   17  C   LIG     1      17.308  35.498  24.089  1.00  0.00     0.008 A 
ENDBRANCH   1  12
TORSDOF 2
ENDMDL
