MODEL 1
REMARK VINA RESULT:      -6.8      0.000      0.000
REMARK  5 active torsions:
REMARK  status: ('A' for Active; 'I' for Inactive)
REMARK    1  A    between atoms: C_6  and  C_12 
REMARK    2  A    between atoms: C_6  and  C_7 
REMARK    3  A    between atoms: C_7  and  C_9 
REMARK    4  A    between atoms: C_9  and  C_10 
REMARK    5  A    between atoms: C_12  and  C_13 
ROOT
HETATM    1  S   LIG     1      15.059  33.140  20.135  1.00  0.00    -0.040 SA
HETATM    2  C   LIG     1      15.654  34.533  20.757  1.00  0.00     0.181 C 
HETATM    3  N   LIG     1      14.797  35.422  21.467  1.00  0.00    -0.302 N 
HETATM    4  N   LIG     1      17.013  34.889  20.542  1.00  0.00    -0.302 N 
HETATM    5  C   LIG     1      17.529  36.133  21.021  1.00  0.00     0.242 C 
HETATM    6  C   LIG     1      16.810  36.933  22.116  1.00  0.00     0.128 C 
HETATM    7  C   LIG     1      15.314  36.584  22.124  1.00  0.00     0.242 C 
HETATM    8  O   LIG     1      14.514  37.291  22.798  1.00  0.00    -0.272 OA
HETATM    9  O   LIG     1      18.623  36.544  20.549  1.00  0.00    -0.272 OA
HETATM   10  H   LIG     1      13.780  35.201  21.550  1.00  0.00     0.171 HD
HETATM   11  H   LIG     1      17.619  34.283  19.941  1.00  0.00     0.171 HD
ENDROOT
BRANCH   6  12
HETATM   12  C   LIG     1      16.867  38.466  21.772  1.00  0.00     0.056 C 
BRANCH  12  13
HETATM   13  C   LIG     1      18.206  39.143  21.920  1.00  0.00    -0.035 C 
HETATM   14  C   LIG     1      18.869  39.642  20.873  1.00  0.00     0.007 C 
ENDBRANCH  12  13
ENDBRANCH   6  12
BRANCH   6  15
HETATM   15  C   LIG     1      17.426  36.612  23.546  1.00  0.00     0.009 C 
HETATM   16  C   LIG     1      16.890  37.559  24.650  1.00  0.00     0.011 C 
BRANCH  15  17
HETATM   17  C   LIG     1      17.219  35.142  24.029  1.00  0.00     0.005 C 
BRANCH  17  18
HETATM   18  C   LIG     1      17.082  35.041  25.557  1.00  0.00    -0.004 C 
HETATM   19  C   LIG     1      18.437  34.813  26.220  1.00  0.00     0.005 C 
ENDBRANCH  17  18
ENDBRANCH  15  17
ENDBRANCH   6  15
TORSDOF 5
ENDMDL
MODEL 2
REMARK VINA RESULT:      -6.7      2.420      3.765
REMARK  5 active torsions:
REMARK  status: ('A' for Active; 'I' for Inactive)
REMARK    1  A    between atoms: C_6  and  C_12 
REMARK    2  A    between atoms: C_6  and  C_7 
REMARK    3  A    between atoms: C_7  and  C_9 
REMARK    4  A    between atoms: C_9  and  C_10 
REMARK    5  A    between atoms: C_12  and  C_13 
ROOT
HETATM    1  S   LIG     1      19.819  38.971  19.598  1.00  0.00    -0.040 SA
HETATM    2  C   LIG     1      18.686  38.283  20.559  1.00  0.00     0.181 C 
HETATM    3  N   LIG     1      18.443  36.882  20.488  1.00  0.00    -0.302 N 
HETATM    4  N   LIG     1      17.899  39.090  21.427  1.00  0.00    -0.302 N 
HETATM    5  C   LIG     1      16.861  38.513  22.221  1.00  0.00     0.242 C 
HETATM    6  C   LIG     1      16.810  37.006  22.507  1.00  0.00     0.128 C 
HETATM    7  C   LIG     1      17.548  36.237  21.400  1.00  0.00     0.242 C 
HETATM    8  O   LIG     1      17.433  34.982  21.332  1.00  0.00    -0.272 OA
HETATM    9  O   LIG     1      15.999  39.283  22.724  1.00  0.00    -0.272 OA
HETATM   10  H   LIG     1      18.962  36.303  19.790  1.00  0.00     0.171 HD
HETATM   11  H   LIG     1      18.011  40.130  21.411  1.00  0.00     0.171 HD
ENDROOT
BRANCH   6  12
HETATM   12  C   LIG     1      15.323  36.503  22.428  1.00  0.00     0.056 C 
BRANCH  12  13
HETATM   13  C   LIG     1      14.951  35.682  21.221  1.00  0.00    -0.035 C 
HETATM   14  C   LIG     1      14.574  34.403  21.319  1.00  0.00     0.007 C 
ENDBRANCH  12  13
ENDBRANCH   6  12
BRANCH   6  15
HETATM   15  C   LIG     1      17.486  36.673  23.907  1.00  0.00     0.009 C 
HETATM   16  C   LIG     1      17.072  37.669  25.020  1.00  0.00     0.011 C 
BRANCH  15  17
HETATM   17  C   LIG     1      17.221  35.226  24.431  1.00  0.00     0.005 C 
BRANCH  17  18
HETATM   18  C   LIG     1      17.321  35.130  25.962  1.00  0.00    -0.004 C 
HETATM   19  C   LIG     1      18.735  34.761  26.401  1.00  0.00     0.005 C 
ENDBRANCH  17  18
ENDBRANCH  15  17
ENDBRANCH   6  15
TORSDOF 5
ENDMDL
MODEL 3
REMARK VINA RESULT:      -6.1      2.815      4.625
REMARK  5 active torsions:
REMARK  status: ('A' for Active; 'I' for Inactive)
REMARK    1  A    between atoms: C_6  and  C_12 
REMARK    2  A    between atoms: C_6  and  C_7 
REMARK    3  A    between atoms: C_7  and  C_9 
REMARK    4  A    between atoms: C_9  and  C_10 
REMARK    5  A    between atoms: C_12  and  C_13 
ROOT
HETATM    1  S   LIG     1      17.950  36.909  26.567  1.00  0.00    -0.040 SA
HETATM    2  C   LIG     1      17.356  36.839  25.043  1.00  0.00     0.181 C 
HETATM    3  N   LIG     1      16.452  37.837  24.581  1.00  0.00    -0.302 N 
HETATM    4  N   LIG     1      17.694  35.749  24.194  1.00  0.00    -0.302 N 
HETATM    5  C   LIG     1      17.129  35.638  22.885  1.00  0.00     0.242 C 
HETATM    6  C   LIG     1      16.494  36.844  22.179  1.00  0.00     0.128 C 
HETATM    7  C   LIG     1      16.013  37.867  23.219  1.00  0.00     0.242 C 
HETATM    8  O   LIG     1      15.270  38.821  22.855  1.00  0.00    -0.272 OA
HETATM    9  O   LIG     1      17.202  34.525  22.299  1.00  0.00    -0.272 OA
HETATM   10  H   LIG     1      16.137  38.589  25.234  1.00  0.00     0.171 HD
HETATM   11  H   LIG     1      18.282  34.967  24.564  1.00  0.00     0.171 HD
ENDROOT
BRANCH   6  12
HETATM   12  C   LIG     1      15.192  36.388  21.425  1.00  0.00     0.056 C 
BRANCH  12  13
HETATM   13  C   LIG     1      15.244  35.048  20.737  1.00  0.00    -0.035 C 
HETATM   14  C   LIG     1      15.438  34.932  19.420  1.00  0.00     0.007 C 
ENDBRANCH  12  13
ENDBRANCH   6  12
BRANCH   6  15
HETATM   15  C   LIG     1      17.540  37.544  21.208  1.00  0.00     0.009 C 
HETATM   16  C   LIG     1      18.447  38.563  21.944  1.00  0.00     0.011 C 
BRANCH  15  17
HETATM   17  C   LIG     1      18.460  36.559  20.421  1.00  0.00     0.005 C 
BRANCH  17  18
HETATM   18  C   LIG     1      19.495  37.291  19.551  1.00  0.00    -0.004 C 
HETATM   19  C   LIG     1      18.823  38.297  18.621  1.00  0.00     0.005 C 
ENDBRANCH  17  18
ENDBRANCH  15  17
ENDBRANCH   6  15
TORSDOF 5
ENDMDL
MODEL 4
REMARK VINA RESULT:      -4.6     15.747     17.204
REMARK  5 active torsions:
REMARK  status: ('A' for Active; 'I' for Inactive)
REMARK    1  A    between atoms: C_6  and  C_12 
REMARK    2  A    between atoms: C_6  and  C_7 
REMARK    3  A    between atoms: C_7  and  C_9 
REMARK    4  A    between atoms: C_9  and  C_10 
REMARK    5  A    between atoms: C_12  and  C_13 
ROOT
HETATM    1  S   LIG     1      28.058  19.772  21.168  1.00  0.00    -0.040 SA
HETATM    2  C   LIG     1      26.614  20.419  20.748  1.00  0.00     0.181 C 
HETATM    3  N   LIG     1      25.411  19.696  20.986  1.00  0.00    -0.302 N 
HETATM    4  N   LIG     1      26.559  21.679  20.091  1.00  0.00    -0.302 N 
HETATM    5  C   LIG     1      25.310  22.224  19.658  1.00  0.00     0.242 C 
HETATM    6  C   LIG     1      23.974  21.725  20.225  1.00  0.00     0.128 C 
HETATM    7  C   LIG     1      24.130  20.286  20.742  1.00  0.00     0.242 C 
HETATM    8  O   LIG     1      23.101  19.619  21.043  1.00  0.00    -0.272 OA
HETATM    9  O   LIG     1      25.332  23.166  18.821  1.00  0.00    -0.272 OA
HETATM   10  H   LIG     1      25.458  18.734  21.391  1.00  0.00     0.171 HD
HETATM   11  H   LIG     1      27.446  22.167  19.831  1.00  0.00     0.171 HD
ENDROOT
BRANCH   6  12
HETATM   12  C   LIG     1      22.914  21.628  19.068  1.00  0.00     0.056 C 
BRANCH  12  13
HETATM   13  C   LIG     1      23.232  20.684  17.937  1.00  0.00    -0.035 C 
HETATM   14  C   LIG     1      22.369  19.751  17.525  1.00  0.00     0.007 C 
ENDBRANCH  12  13
ENDBRANCH   6  12
BRANCH   6  15
HETATM   15  C   LIG     1      23.483  22.654  21.418  1.00  0.00     0.009 C 
HETATM   16  C   LIG     1      21.958  22.924  21.373  1.00  0.00     0.011 C 
BRANCH  15  17
HETATM   17  C   LIG     1      23.839  22.126  22.843  1.00  0.00     0.005 C 
BRANCH  17  18
HETATM   18  C   LIG     1      25.147  22.729  23.382  1.00  0.00    -0.004 C 
HETATM   19  C   LIG     1      25.030  23.067  24.865  1.00  0.00     0.005 C 
ENDBRANCH  17  18
ENDBRANCH  15  17
ENDBRANCH   6  15
TORSDOF 5
ENDMDL
MODEL 5
REMARK VINA RESULT:      -4.6     15.413     16.837
REMARK  5 active torsions:
REMARK  status: ('A' for Active; 'I' for Inactive)
REMARK    1  A    between atoms: C_6  and  C_12 
REMARK    2  A    between atoms: C_6  and  C_7 
REMARK    3  A    between atoms: C_7  and  C_9 
REMARK    4  A    between atoms: C_9  and  C_10 
REMARK    5  A    between atoms: C_12  and  C_13 
ROOT
HETATM    1  S   LIG     1      23.698  19.540  24.172  1.00  0.00    -0.040 SA
HETATM    2  C   LIG     1      23.832  20.366  22.765  1.00  0.00     0.181 C 
HETATM    3  N   LIG     1      22.818  21.285  22.375  1.00  0.00    -0.302 N 
HETATM    4  N   LIG     1      24.933  20.124  21.897  1.00  0.00    -0.302 N 
HETATM    5  C   LIG     1      25.028  20.787  20.634  1.00  0.00     0.242 C 
HETATM    6  C   LIG     1      24.224  22.058  20.330  1.00  0.00     0.128 C 
HETATM    7  C   LIG     1      22.967  22.107  21.213  1.00  0.00     0.242 C 
HETATM    8  O   LIG     1      22.066  22.955  20.964  1.00  0.00    -0.272 OA
HETATM    9  O   LIG     1      25.829  20.323  19.779  1.00  0.00    -0.272 OA
HETATM   10  H   LIG     1      21.968  21.398  22.972  1.00  0.00     0.171 HD
HETATM   11  H   LIG     1      25.629  19.381  22.137  1.00  0.00     0.171 HD
ENDROOT
BRANCH   6  12
HETATM   12  C   LIG     1      23.682  22.000  18.856  1.00  0.00     0.056 C 
BRANCH  12  13
HETATM   13  C   LIG     1      22.770  20.849  18.517  1.00  0.00    -0.035 C 
HETATM   14  C   LIG     1      23.071  19.959  17.566  1.00  0.00     0.007 C 
ENDBRANCH  12  13
ENDBRANCH   6  12
BRANCH   6  15
HETATM   15  C   LIG     1      25.099  23.358  20.601  1.00  0.00     0.009 C 
HETATM   16  C   LIG     1      26.123  23.159  21.747  1.00  0.00     0.011 C 
BRANCH  15  17
HETATM   17  C   LIG     1      25.869  23.896  19.354  1.00  0.00     0.005 C 
BRANCH  17  18
HETATM   18  C   LIG     1      26.077  25.419  19.406  1.00  0.00    -0.004 C 
HETATM   19  C   LIG     1      27.532  25.787  19.130  1.00  0.00     0.005 C 
ENDBRANCH  17  18
ENDBRANCH  15  17
ENDBRANCH   6  15
TORSDOF 5
ENDMDL
MODEL 6
REMARK VINA RESULT:      -4.6      5.132      8.103
REMARK  5 active torsions:
REMARK  status: ('A' for Active; 'I' for Inactive)
REMARK    1  A    between atoms: C_6  and  C_12 
REMARK    2  A    between atoms: C_6  and  C_7 
REMARK    3  A    between atoms: C_7  and  C_9 
REMARK    4  A    between atoms: C_9  and  C_10 
REMARK    5  A    between atoms: C_12  and  C_13 
ROOT
HETATM    1  S   LIG     1      16.438  35.196  20.989  1.00  0.00    -0.040 SA
HETATM    2  C   LIG     1      15.809  34.334  19.746  1.00  0.00     0.181 C 
HETATM    3  N   LIG     1      15.337  35.001  18.581  1.00  0.00    -0.302 N 
HETATM    4  N   LIG     1      15.678  32.922  19.850  1.00  0.00    -0.302 N 
HETATM    5  C   LIG     1      15.069  32.165  18.802  1.00  0.00     0.242 C 
HETATM    6  C   LIG     1      14.916  32.732  17.385  1.00  0.00     0.128 C 
HETATM    7  C   LIG     1      14.896  34.268  17.434  1.00  0.00     0.242 C 
HETATM    8  O   LIG     1      14.559  34.918  16.405  1.00  0.00    -0.272 OA
HETATM    9  O   LIG     1      14.693  30.989  19.060  1.00  0.00    -0.272 OA
HETATM   10  H   LIG     1      15.354  36.045  18.541  1.00  0.00     0.171 HD
HETATM   11  H   LIG     1      15.937  32.442  20.743  1.00  0.00     0.171 HD
ENDROOT
BRANCH   6  12
HETATM   12  C   LIG     1      13.513  32.326  16.803  1.00  0.00     0.056 C 
BRANCH  12  13
HETATM   13  C   LIG     1      13.271  30.854  16.588  1.00  0.00    -0.035 C 
HETATM   14  C   LIG     1      12.308  30.402  15.780  1.00  0.00     0.007 C 
ENDBRANCH  12  13
ENDBRANCH   6  12
BRANCH   6  15
HETATM   15  C   LIG     1      16.115  32.259  16.454  1.00  0.00     0.009 C 
HETATM   16  C   LIG     1      15.637  31.392  15.261  1.00  0.00     0.011 C 
BRANCH  15  17
HETATM   17  C   LIG     1      16.996  33.417  15.888  1.00  0.00     0.005 C 
BRANCH  17  18
HETATM   18  C   LIG     1      17.724  33.019  14.593  1.00  0.00    -0.004 C 
HETATM   19  C   LIG     1      17.909  34.221  13.672  1.00  0.00     0.005 C 
ENDBRANCH  17  18
ENDBRANCH  15  17
ENDBRANCH   6  15
TORSDOF 5
ENDMDL
MODEL 7
REMARK VINA RESULT:      -4.6     17.404     18.706
REMARK  5 active torsions:
REMARK  status: ('A' for Active; 'I' for Inactive)
REMARK    1  A    between atoms: C_6  and  C_12 
REMARK    2  A    between atoms: C_6  and  C_7 
REMARK    3  A    between atoms: C_7  and  C_9 
REMARK    4  A    between atoms: C_9  and  C_10 
REMARK    5  A    between atoms: C_12  and  C_13 
ROOT
HETATM    1  S   LIG     1      29.362  25.278  35.430  1.00  0.00    -0.040 SA
HETATM    2  C   LIG     1      28.749  26.791  35.313  1.00  0.00     0.181 C 
HETATM    3  N   LIG     1      27.688  27.064  34.404  1.00  0.00    -0.302 N 
HETATM    4  N   LIG     1      29.311  27.852  36.076  1.00  0.00    -0.302 N 
HETATM    5  C   LIG     1      28.831  29.191  35.933  1.00  0.00     0.242 C 
HETATM    6  C   LIG     1      27.463  29.492  35.307  1.00  0.00     0.128 C 
HETATM    7  C   LIG     1      27.053  28.346  34.368  1.00  0.00     0.242 C 
HETATM    8  O   LIG     1      26.070  28.501  33.591  1.00  0.00    -0.272 OA
HETATM    9  O   LIG     1      29.546  30.129  36.377  1.00  0.00    -0.272 OA
HETATM   10  H   LIG     1      27.333  26.304  33.782  1.00  0.00     0.171 HD
HETATM   11  H   LIG     1      30.151  27.672  36.672  1.00  0.00     0.171 HD
ENDROOT
BRANCH   6  12
HETATM   12  C   LIG     1      27.574  30.756  34.379  1.00  0.00     0.056 C 
BRANCH  12  13
HETATM   13  C   LIG     1      28.593  30.694  33.271  1.00  0.00    -0.035 C 
HETATM   14  C   LIG     1      29.158  31.792  32.761  1.00  0.00     0.007 C 
ENDBRANCH  12  13
ENDBRANCH   6  12
BRANCH   6  15
HETATM   15  C   LIG     1      26.352  29.664  36.431  1.00  0.00     0.009 C 
HETATM   16  C   LIG     1      26.751  28.993  37.770  1.00  0.00     0.011 C 
BRANCH  15  17
HETATM   17  C   LIG     1      25.953  31.143  36.732  1.00  0.00     0.005 C 
BRANCH  17  18
HETATM   18  C   LIG     1      26.407  31.599  38.129  1.00  0.00    -0.004 C 
HETATM   19  C   LIG     1      27.536  32.620  38.037  1.00  0.00     0.005 C 
ENDBRANCH  17  18
ENDBRANCH  15  17
ENDBRANCH   6  15
TORSDOF 5
ENDMDL
MODEL 8
REMARK VINA RESULT:      -4.6     16.601     18.359
REMARK  5 active torsions:
REMARK  status: ('A' for Active; 'I' for Inactive)
REMARK    1  A    between atoms: C_6  and  C_12 
REMARK    2  A    between atoms: C_6  and  C_7 
REMARK    3  A    between atoms: C_7  and  C_9 
REMARK    4  A    between atoms: C_9  and  C_10 
REMARK    5  A    between atoms: C_12  and  C_13 
ROOT
HETATM    1  S   LIG     1      26.297  24.084  35.791  1.00  0.00    -0.040 SA
HETATM    2  C   LIG     1      26.748  25.530  35.171  1.00  0.00     0.181 C 
HETATM    3  N   LIG     1      27.582  26.403  35.926  1.00  0.00    -0.302 N 
HETATM    4  N   LIG     1      26.261  25.947  33.902  1.00  0.00    -0.302 N 
HETATM    5  C   LIG     1      26.591  27.236  33.378  1.00  0.00     0.242 C 
HETATM    6  C   LIG     1      27.778  28.043  33.918  1.00  0.00     0.128 C 
HETATM    7  C   LIG     1      28.089  27.617  35.362  1.00  0.00     0.242 C 
HETATM    8  O   LIG     1      28.882  28.310  36.057  1.00  0.00    -0.272 OA
HETATM    9  O   LIG     1      25.901  27.682  32.422  1.00  0.00    -0.272 OA
HETATM   10  H   LIG     1      27.869  26.134  36.893  1.00  0.00     0.171 HD
HETATM   11  H   LIG     1      25.573  25.348  33.389  1.00  0.00     0.171 HD
ENDROOT
BRANCH   6  12
HETATM   12  C   LIG     1      27.382  29.561  34.020  1.00  0.00     0.056 C 
BRANCH  12  13
HETATM   13  C   LIG     1      26.230  29.899  34.932  1.00  0.00    -0.035 C 
HETATM   14  C   LIG     1      26.121  31.089  35.528  1.00  0.00     0.007 C 
ENDBRANCH  12  13
ENDBRANCH   6  12
BRANCH   6  15
HETATM   15  C   LIG     1      29.071  27.816  33.021  1.00  0.00     0.009 C 
HETATM   16  C   LIG     1      29.296  26.324  32.669  1.00  0.00     0.011 C 
BRANCH  15  17
HETATM   17  C   LIG     1      29.094  28.635  31.692  1.00  0.00     0.005 C 
BRANCH  17  18
HETATM   18  C   LIG     1      29.151  27.732  30.449  1.00  0.00    -0.004 C 
HETATM   19  C   LIG     1      27.933  27.945  29.555  1.00  0.00     0.005 C 
ENDBRANCH  17  18
ENDBRANCH  15  17
ENDBRANCH   6  15
TORSDOF 5
ENDMDL
MODEL 9
REMARK VINA RESULT:      -4.5     15.892     17.274
REMARK  5 active torsions:
REMARK  status: ('A' for Active; 'I' for Inactive)
REMARK    1  A    between atoms: C_6  and  C_12 
REMARK    2  A    between atoms: C_6  and  C_7 
REMARK    3  A    between atoms: C_7  and  C_9 
REMARK    4  A    between atoms: C_9  and  C_10 
REMARK    5  A    between atoms: C_12  and  C_13 
ROOT
HETATM    1  S   LIG     1      25.790  17.950  18.243  1.00  0.00    -0.040 SA
HETATM    2  C   LIG     1      25.584  19.479  18.792  1.00  0.00     0.181 C 
HETATM    3  N   LIG     1      26.146  19.872  20.040  1.00  0.00    -0.302 N 
HETATM    4  N   LIG     1      24.794  20.403  18.055  1.00  0.00    -0.302 N 
HETATM    5  C   LIG     1      24.549  21.719  18.556  1.00  0.00     0.242 C 
HETATM    6  C   LIG     1      25.427  22.340  19.651  1.00  0.00     0.128 C 
HETATM    7  C   LIG     1      26.085  21.230  20.486  1.00  0.00     0.242 C 
HETATM    8  O   LIG     1      26.667  21.528  21.566  1.00  0.00    -0.272 OA
HETATM    9  O   LIG     1      23.609  22.385  18.043  1.00  0.00    -0.272 OA
HETATM   10  H   LIG     1      26.654  19.168  20.622  1.00  0.00     0.171 HD
HETATM   11  H   LIG     1      24.303  20.088  17.187  1.00  0.00     0.171 HD
ENDROOT
BRANCH   6  12
HETATM   12  C   LIG     1      24.525  23.132  20.665  1.00  0.00     0.056 C 
BRANCH  12  13
HETATM   13  C   LIG     1      23.389  22.369  21.297  1.00  0.00    -0.035 C 
HETATM   14  C   LIG     1      22.140  22.843  21.320  1.00  0.00     0.007 C 
ENDBRANCH  12  13
ENDBRANCH   6  12
BRANCH   6  15
HETATM   15  C   LIG     1      26.564  23.252  19.014  1.00  0.00     0.009 C 
HETATM   16  C   LIG     1      27.371  22.516  17.914  1.00  0.00     0.011 C 
BRANCH  15  17
HETATM   17  C   LIG     1      26.057  24.603  18.419  1.00  0.00     0.005 C 
BRANCH  17  18
HETATM   18  C   LIG     1      26.720  25.821  19.084  1.00  0.00    -0.004 C 
HETATM   19  C   LIG     1      27.451  25.423  20.362  1.00  0.00     0.005 C 
ENDBRANCH  17  18
ENDBRANCH  15  17
ENDBRANCH   6  15
TORSDOF 5
ENDMDL
MODEL 10
REMARK VINA RESULT:      -4.3     15.722     16.951
REMARK  5 active torsions:
REMARK  status: ('A' for Active; 'I' for Inactive)
REMARK    1  A    between atoms: C_6  and  C_12 
REMARK    2  A    between atoms: C_6  and  C_7 
REMARK    3  A    between atoms: C_7  and  C_9 
REMARK    4  A    between atoms: C_9  and  C_10 
REMARK    5  A    between atoms: C_12  and  C_13 
ROOT
HETATM    1  S   LIG     1      28.438  20.907  22.942  1.00  0.00    -0.040 SA
HETATM    2  C   LIG     1      27.712  21.804  21.780  1.00  0.00     0.181 C 
HETATM    3  N   LIG     1      26.351  22.194  21.926  1.00  0.00    -0.302 N 
HETATM    4  N   LIG     1      28.419  22.147  20.595  1.00  0.00    -0.302 N 
HETATM    5  C   LIG     1      27.776  22.870  19.543  1.00  0.00     0.242 C 
HETATM    6  C   LIG     1      26.484  23.662  19.785  1.00  0.00     0.128 C 
HETATM    7  C   LIG     1      25.727  23.077  20.987  1.00  0.00     0.242 C 
HETATM    8  O   LIG     1      24.541  23.444  21.213  1.00  0.00    -0.272 OA
HETATM    9  O   LIG     1      28.323  22.879  18.407  1.00  0.00    -0.272 OA
HETATM   10  H   LIG     1      25.807  21.870  22.756  1.00  0.00     0.171 HD
HETATM   11  H   LIG     1      29.387  21.781  20.445  1.00  0.00     0.171 HD
ENDROOT
BRANCH   6  12
HETATM   12  C   LIG     1      25.513  23.473  18.563  1.00  0.00     0.056 C 
BRANCH  12  13
HETATM   13  C   LIG     1      24.977  22.083  18.336  1.00  0.00    -0.035 C 
HETATM   14  C   LIG     1      23.672  21.841  18.179  1.00  0.00     0.007 C 
ENDBRANCH  12  13
ENDBRANCH   6  12
BRANCH   6  15
HETATM   15  C   LIG     1      26.805  25.194  20.069  1.00  0.00     0.009 C 
HETATM   16  C   LIG     1      27.971  25.381  21.072  1.00  0.00     0.011 C 
BRANCH  15  17
HETATM   17  C   LIG     1      27.122  26.040  18.796  1.00  0.00     0.005 C 
BRANCH  17  18
HETATM   18  C   LIG     1      28.617  26.378  18.675  1.00  0.00    -0.004 C 
HETATM   19  C   LIG     1      28.822  27.778  18.104  1.00  0.00     0.005 C 
ENDBRANCH  17  18
ENDBRANCH  15  17
ENDBRANCH   6  15
TORSDOF 5
ENDMDL
MODEL 11
REMARK VINA RESULT:      -4.1     18.453     20.442
REMARK  5 active torsions:
REMARK  status: ('A' for Active; 'I' for Inactive)
REMARK    1  A    between atoms: C_6  and  C_12 
REMARK    2  A    between atoms: C_6  and  C_7 
REMARK    3  A    between atoms: C_7  and  C_9 
REMARK    4  A    between atoms: C_9  and  C_10 
REMARK    5  A    between atoms: C_12  and  C_13 
ROOT
HETATM    1  S   LIG     1      25.062  23.482  35.853  1.00  0.00    -0.040 SA
HETATM    2  C   LIG     1      23.580  22.791  35.781  1.00  0.00     0.181 C 
HETATM    3  N   LIG     1      22.424  23.537  36.148  1.00  0.00    -0.302 N 
HETATM    4  N   LIG     1      23.445  21.425  35.409  1.00  0.00    -0.302 N 
HETATM    5  C   LIG     1      22.165  20.789  35.408  1.00  0.00     0.242 C 
HETATM    6  C   LIG     1      20.863  21.602  35.388  1.00  0.00     0.128 C 
HETATM    7  C   LIG     1      21.109  22.999  35.980  1.00  0.00     0.242 C 
HETATM    8  O   LIG     1      20.124  23.739  36.254  1.00  0.00    -0.272 OA
HETATM    9  O   LIG     1      22.127  19.529  35.382  1.00  0.00    -0.272 OA
HETATM   10  H   LIG     1      22.532  24.514  36.503  1.00  0.00     0.171 HD
HETATM   11  H   LIG     1      24.300  20.850  35.232  1.00  0.00     0.171 HD
ENDROOT
BRANCH   6  12
HETATM   12  C   LIG     1      19.810  20.935  36.345  1.00  0.00     0.056 C 
BRANCH  12  13
HETATM   13  C   LIG     1      18.682  20.181  35.688  1.00  0.00    -0.035 C 
HETATM   14  C   LIG     1      18.661  18.847  35.626  1.00  0.00     0.007 C 
ENDBRANCH  12  13
ENDBRANCH   6  12
BRANCH   6  15
HETATM   15  C   LIG     1      20.317  21.757  33.903  1.00  0.00     0.009 C 
HETATM   16  C   LIG     1      20.535  23.182  33.334  1.00  0.00     0.011 C 
BRANCH  15  17
HETATM   17  C   LIG     1      20.906  20.734  32.882  1.00  0.00     0.005 C 
BRANCH  17  18
HETATM   18  C   LIG     1      19.811  19.970  32.119  1.00  0.00    -0.004 C 
HETATM   19  C   LIG     1      19.443  20.683  30.821  1.00  0.00     0.005 C 
ENDBRANCH  17  18
ENDBRANCH  15  17
ENDBRANCH   6  15
TORSDOF 5
ENDMDL
MODEL 12
REMARK VINA RESULT:      -3.9     15.747     17.334
REMARK  5 active torsions:
REMARK  status: ('A' for Active; 'I' for Inactive)
REMARK    1  A    between atoms: C_6  and  C_12 
REMARK    2  A    between atoms: C_6  and  C_7 
REMARK    3  A    between atoms: C_7  and  C_9 
REMARK    4  A    between atoms: C_9  and  C_10 
REMARK    5  A    between atoms: C_12  and  C_13 
ROOT
HETATM    1  S   LIG     1      26.951  24.523  20.488  1.00  0.00    -0.040 SA
HETATM    2  C   LIG     1      25.900  23.270  20.555  1.00  0.00     0.181 C 
HETATM    3  N   LIG     1      26.353  21.943  20.310  1.00  0.00    -0.302 N 
HETATM    4  N   LIG     1      24.519  23.508  20.800  1.00  0.00    -0.302 N 
HETATM    5  C   LIG     1      23.579  22.431  20.793  1.00  0.00     0.242 C 
HETATM    6  C   LIG     1      24.027  20.971  20.946  1.00  0.00     0.128 C 
HETATM    7  C   LIG     1      25.483  20.818  20.481  1.00  0.00     0.242 C 
HETATM    8  O   LIG     1      25.966  19.663  20.320  1.00  0.00    -0.272 OA
HETATM    9  O   LIG     1      22.354  22.713  20.701  1.00  0.00    -0.272 OA
HETATM   10  H   LIG     1      27.350  21.778  20.046  1.00  0.00     0.171 HD
HETATM   11  H   LIG     1      24.170  24.490  20.885  1.00  0.00     0.171 HD
ENDROOT
BRANCH   6  12
HETATM   12  C   LIG     1      23.193  20.059  19.974  1.00  0.00     0.056 C 
BRANCH  12  13
HETATM   13  C   LIG     1      23.239  20.413  18.510  1.00  0.00    -0.035 C 
HETATM   14  C   LIG     1      22.522  19.752  17.596  1.00  0.00     0.007 C 
ENDBRANCH  12  13
ENDBRANCH   6  12
BRANCH   6  15
HETATM   15  C   LIG     1      23.914  20.501  22.460  1.00  0.00     0.009 C 
HETATM   16  C   LIG     1      24.247  21.635  23.463  1.00  0.00     0.011 C 
BRANCH  15  17
HETATM   17  C   LIG     1      22.527  19.900  22.854  1.00  0.00     0.005 C 
BRANCH  17  18
HETATM   18  C   LIG     1      22.514  19.350  24.290  1.00  0.00    -0.004 C 
HETATM   19  C   LIG     1      21.269  18.507  24.547  1.00  0.00     0.005 C 
ENDBRANCH  17  18
ENDBRANCH  15  17
ENDBRANCH   6  15
TORSDOF 5
ENDMDL
MODEL 13
REMARK VINA RESULT:      -3.9     16.214     17.594
REMARK  5 active torsions:
REMARK  status: ('A' for Active; 'I' for Inactive)
REMARK    1  A    between atoms: C_6  and  C_12 
REMARK    2  A    between atoms: C_6  and  C_7 
REMARK    3  A    between atoms: C_7  and  C_9 
REMARK    4  A    between atoms: C_9  and  C_10 
REMARK    5  A    between atoms: C_12  and  C_13 
ROOT
HETATM    1  S   LIG     1      28.542  19.757  21.466  1.00  0.00    -0.040 SA
HETATM    2  C   LIG     1      27.543  20.638  20.515  1.00  0.00     0.181 C 
HETATM    3  N   LIG     1      26.659  21.590  21.096  1.00  0.00    -0.302 N 
HETATM    4  N   LIG     1      27.512  20.415  19.111  1.00  0.00    -0.302 N 
HETATM    5  C   LIG     1      26.596  21.129  18.277  1.00  0.00     0.242 C 
HETATM    6  C   LIG     1      25.923  22.425  18.747  1.00  0.00     0.128 C 
HETATM    7  C   LIG     1      25.863  22.458  20.282  1.00  0.00     0.242 C 
HETATM    8  O   LIG     1      25.155  23.330  20.858  1.00  0.00    -0.272 OA
HETATM    9  O   LIG     1      26.383  20.688  17.115  1.00  0.00    -0.272 OA
HETATM   10  H   LIG     1      26.621  21.692  22.135  1.00  0.00     0.171 HD
HETATM   11  H   LIG     1      28.092  19.651  18.695  1.00  0.00     0.171 HD
ENDROOT
BRANCH   6  12
HETATM   12  C   LIG     1      24.421  22.438  18.282  1.00  0.00     0.056 C 
BRANCH  12  13
HETATM   13  C   LIG     1      23.530  21.360  18.845  1.00  0.00    -0.035 C 
HETATM   14  C   LIG     1      22.859  20.512  18.061  1.00  0.00     0.007 C 
ENDBRANCH  12  13
ENDBRANCH   6  12
BRANCH   6  15
HETATM   15  C   LIG     1      26.725  23.698  18.232  1.00  0.00     0.009 C 
HETATM   16  C   LIG     1      25.829  24.956  18.109  1.00  0.00     0.011 C 
BRANCH  15  17
HETATM   17  C   LIG     1      27.971  24.074  19.093  1.00  0.00     0.005 C 
BRANCH  17  18
HETATM   18  C   LIG     1      27.881  25.500  19.661  1.00  0.00    -0.004 C 
HETATM   19  C   LIG     1      28.010  25.499  21.181  1.00  0.00     0.005 C 
ENDBRANCH  17  18
ENDBRANCH  15  17
ENDBRANCH   6  15
TORSDOF 5
ENDMDL
