REMARK  4 active torsions:
REMARK  status: ('A' for Active; 'I' for Inactive)
REMARK    1  A    between atoms: C_6  and  C_11 
REMARK    2  A    between atoms: C_6  and  C_7 
REMARK    3  A    between atoms: C_7  and  C_8 
REMARK    4  A    between atoms: C_8  and  C_9 
ROOT
HETATM    1  O   LIG     1      -3.475  -3.104   0.624  1.00  0.00    -0.247 OA
HETATM    2  C   LIG     1      -2.629  -2.192   0.428  1.00  0.00     0.329 C 
HETATM    3  N   LIG     1      -2.546  -1.092   1.327  1.00  0.00    -0.278 N 
HETATM    4  N   LIG     1      -1.739  -2.272  -0.680  1.00  0.00    -0.278 N 
HETATM    5  C   LIG     1      -0.796  -1.232  -0.950  1.00  0.00     0.243 C 
HETATM    6  C   LIG     1      -0.802   0.084  -0.175  1.00  0.00     0.122 C 
HETATM    7  C   LIG     1      -1.609  -0.033   1.118  1.00  0.00     0.243 C 
HETATM    8  O   LIG     1      -1.471   0.835   2.023  1.00  0.00    -0.272 OA
HETATM    9  O   LIG     1       0.012  -1.384  -1.908  1.00  0.00    -0.272 OA
HETATM   10  H   LIG     1      -3.155  -1.079   2.176  1.00  0.00     0.173 HD
HETATM   11  H   LIG     1      -1.765  -3.115  -1.298  1.00  0.00     0.173 HD
ENDROOT
BRANCH   6  12
HETATM   12  C   LIG     1      -1.469   1.137  -1.111  1.00  0.00     0.024 C 
HETATM   13  C   LIG     1      -1.567   2.563  -0.555  1.00  0.00     0.007 C 
ENDBRANCH   6  12
BRANCH   6  14
HETATM   14  C   LIG     1       0.671   0.490   0.154  1.00  0.00     0.029 C 
BRANCH  14  15
HETATM   15  C   LIG     1       1.442  -0.578   0.962  1.00  0.00     0.001 C 
BRANCH  15  16
HETATM   16  C   LIG     1       2.821  -0.084   1.426  1.00  0.00    -0.005 C 
HETATM   17  C   LIG     1       3.810   0.079   0.272  1.00  0.00     0.005 C 
ENDBRANCH  15  16
ENDBRANCH  14  15
ENDBRANCH   6  14
TORSDOF 4
