REMARK  0 active torsions:
REMARK  status: ('A' for Active; 'I' for Inactive)
ROOT
HETATM    1 CL   LIG     1      -1.396  -0.360  -2.165  1.00  0.00    -0.089 Cl
HETATM    2  C   LIG     1      -0.948  -0.446  -0.442  1.00  0.00     0.191 A 
HETATM    3  C   LIG     1       0.403  -1.067  -0.267  1.00  0.00     0.079 A 
HETATM    4 CL   LIG     1       0.820  -2.708  -0.737  1.00  0.00    -0.083 Cl
HETATM    5  C   LIG     1       1.240  -0.205   0.293  1.00  0.00     0.078 A 
HETATM    6 CL   LIG     1       2.924  -0.519   0.678  1.00  0.00    -0.081 Cl
HETATM    7  C   LIG     1       0.540   1.042   0.537  1.00  0.00     0.078 A 
HETATM    8 CL   LIG     1       1.242   2.478   1.264  1.00  0.00    -0.081 Cl
HETATM    9  C   LIG     1      -0.713   0.921   0.122  1.00  0.00     0.079 A 
HETATM   10 CL   LIG     1      -1.928   2.187   0.220  1.00  0.00    -0.083 Cl
HETATM   11 CL   LIG     1      -2.184  -1.323   0.495  1.00  0.00    -0.089 Cl
ENDROOT
TORSDOF 0
