MODEL 1
REMARK VINA RESULT:      -5.4      0.000      0.000
REMARK  0 active torsions:
REMARK  status: ('A' for Active; 'I' for Inactive)
ROOT
HETATM    1 CL   LIG     1      14.855  37.011  22.564  1.00  0.00    -0.089 Cl
HETATM    2  C   LIG     1      16.575  36.564  22.423  1.00  0.00     0.191 A 
HETATM    3  C   LIG     1      16.919  36.185  21.016  1.00  0.00     0.079 A 
HETATM    4 CL   LIG     1      16.216  34.832  20.142  1.00  0.00    -0.083 Cl
HETATM    5  C   LIG     1      17.830  37.012  20.523  1.00  0.00     0.078 A 
HETATM    6 CL   LIG     1      18.516  36.932  18.909  1.00  0.00    -0.081 Cl
HETATM    7  C   LIG     1      18.168  37.997  21.533  1.00  0.00     0.078 A 
HETATM    8 CL   LIG     1      19.330  39.299  21.335  1.00  0.00    -0.081 Cl
HETATM    9  C   LIG     1      17.459  37.755  22.626  1.00  0.00     0.079 A 
HETATM   10 CL   LIG     1      17.544  38.699  24.106  1.00  0.00    -0.083 Cl
HETATM   11 CL   LIG     1      16.989  35.256  23.560  1.00  0.00    -0.089 Cl
ENDROOT
TORSDOF 0
ENDMDL
MODEL 2
REMARK VINA RESULT:      -5.4      0.199      3.319
REMARK  0 active torsions:
REMARK  status: ('A' for Active; 'I' for Inactive)
ROOT
HETATM    1 CL   LIG     1      17.060  35.469  23.734  1.00  0.00    -0.089 Cl
HETATM    2  C   LIG     1      16.604  36.646  22.476  1.00  0.00     0.191 A 
HETATM    3  C   LIG     1      17.457  37.874  22.551  1.00  0.00     0.079 A 
HETATM    4 CL   LIG     1      17.525  38.963  23.929  1.00  0.00    -0.083 Cl
HETATM    5  C   LIG     1      18.153  38.024  21.433  1.00  0.00     0.078 A 
HETATM    6 CL   LIG     1      19.279  39.330  21.098  1.00  0.00    -0.081 Cl
HETATM    7  C   LIG     1      17.836  36.935  20.530  1.00  0.00     0.078 A 
HETATM    8 CL   LIG     1      18.516  36.711  18.926  1.00  0.00    -0.081 Cl
HETATM    9  C   LIG     1      16.951  36.137  21.111  1.00  0.00     0.079 A 
HETATM   10 CL   LIG     1      16.279  34.686  20.382  1.00  0.00    -0.083 Cl
HETATM   11 CL   LIG     1      14.874  37.059  22.586  1.00  0.00    -0.089 Cl
ENDROOT
TORSDOF 0
ENDMDL
MODEL 3
REMARK VINA RESULT:      -4.7      1.594      3.447
REMARK  0 active torsions:
REMARK  status: ('A' for Active; 'I' for Inactive)
ROOT
HETATM    1 CL   LIG     1      19.043  39.004  22.815  1.00  0.00    -0.089 Cl
HETATM    2  C   LIG     1      17.470  38.169  22.874  1.00  0.00     0.191 A 
HETATM    3  C   LIG     1      17.423  37.038  21.894  1.00  0.00     0.079 A 
HETATM    4 CL   LIG     1      17.568  37.215  20.152  1.00  0.00    -0.083 Cl
HETATM    5  C   LIG     1      17.254  35.885  22.526  1.00  0.00     0.078 A 
HETATM    6 CL   LIG     1      17.144  34.308  21.761  1.00  0.00    -0.081 Cl
HETATM    7  C   LIG     1      17.176  36.135  23.953  1.00  0.00     0.078 A 
HETATM    8 CL   LIG     1      16.957  34.909  25.190  1.00  0.00    -0.081 Cl
HETATM    9  C   LIG     1      17.298  37.437  24.169  1.00  0.00     0.079 A 
HETATM   10 CL   LIG     1      17.263  38.197  25.753  1.00  0.00    -0.083 Cl
HETATM   11 CL   LIG     1      16.130  39.312  22.601  1.00  0.00    -0.089 Cl
ENDROOT
TORSDOF 0
ENDMDL
MODEL 4
REMARK VINA RESULT:      -4.7      1.137      3.343
REMARK  0 active torsions:
REMARK  status: ('A' for Active; 'I' for Inactive)
ROOT
HETATM    1 CL   LIG     1      19.057  38.571  23.781  1.00  0.00    -0.089 Cl
HETATM    2  C   LIG     1      17.727  38.326  22.620  1.00  0.00     0.191 A 
HETATM    3  C   LIG     1      18.235  38.324  21.212  1.00  0.00     0.079 A 
HETATM    4 CL   LIG     1      19.028  39.684  20.431  1.00  0.00    -0.083 Cl
HETATM    5  C   LIG     1      18.002  37.153  20.636  1.00  0.00     0.078 A 
HETATM    6 CL   LIG     1      18.432  36.719  18.991  1.00  0.00    -0.081 Cl
HETATM    7  C   LIG     1      17.332  36.285  21.587  1.00  0.00     0.078 A 
HETATM    8 CL   LIG     1      16.823  34.634  21.275  1.00  0.00    -0.081 Cl
HETATM    9  C   LIG     1      17.167  36.941  22.727  1.00  0.00     0.079 A 
HETATM   10 CL   LIG     1      16.400  36.278  24.163  1.00  0.00    -0.083 Cl
HETATM   11 CL   LIG     1      16.453  39.551  22.841  1.00  0.00    -0.089 Cl
ENDROOT
TORSDOF 0
ENDMDL
MODEL 5
REMARK VINA RESULT:      -4.7      1.589      4.248
REMARK  0 active torsions:
REMARK  status: ('A' for Active; 'I' for Inactive)
ROOT
HETATM    1 CL   LIG     1      16.132  39.312  22.596  1.00  0.00    -0.089 Cl
HETATM    2  C   LIG     1      17.473  38.170  22.867  1.00  0.00     0.191 A 
HETATM    3  C   LIG     1      17.303  37.436  24.160  1.00  0.00     0.079 A 
HETATM    4 CL   LIG     1      17.269  38.194  25.745  1.00  0.00    -0.083 Cl
HETATM    5  C   LIG     1      17.182  36.134  23.942  1.00  0.00     0.078 A 
HETATM    6 CL   LIG     1      16.964  34.907  25.179  1.00  0.00    -0.081 Cl
HETATM    7  C   LIG     1      17.258  35.886  22.515  1.00  0.00     0.078 A 
HETATM    8 CL   LIG     1      17.147  34.309  21.749  1.00  0.00    -0.081 Cl
HETATM    9  C   LIG     1      17.425  37.040  21.885  1.00  0.00     0.079 A 
HETATM   10 CL   LIG     1      17.568  37.219  20.143  1.00  0.00    -0.083 Cl
HETATM   11 CL   LIG     1      19.045  39.006  22.805  1.00  0.00    -0.089 Cl
ENDROOT
TORSDOF 0
ENDMDL
MODEL 6
REMARK VINA RESULT:      -4.7      1.158      3.022
REMARK  0 active torsions:
REMARK  status: ('A' for Active; 'I' for Inactive)
ROOT
HETATM    1 CL   LIG     1      16.437  39.526  22.897  1.00  0.00    -0.089 Cl
HETATM    2  C   LIG     1      17.728  38.323  22.651  1.00  0.00     0.191 A 
HETATM    3  C   LIG     1      17.193  36.929  22.759  1.00  0.00     0.079 A 
HETATM    4 CL   LIG     1      16.460  36.246  24.203  1.00  0.00    -0.083 Cl
HETATM    5  C   LIG     1      17.351  36.281  21.613  1.00  0.00     0.078 A 
HETATM    6 CL   LIG     1      16.864  34.624  21.300  1.00  0.00    -0.081 Cl
HETATM    7  C   LIG     1      17.991  37.164  20.656  1.00  0.00     0.078 A 
HETATM    8 CL   LIG     1      18.403  36.746  19.001  1.00  0.00    -0.081 Cl
HETATM    9  C   LIG     1      18.214  38.336  21.234  1.00  0.00     0.079 A 
HETATM   10 CL   LIG     1      18.972  39.713  20.448  1.00  0.00    -0.083 Cl
HETATM   11 CL   LIG     1      19.071  38.585  23.792  1.00  0.00    -0.089 Cl
ENDROOT
TORSDOF 0
ENDMDL
MODEL 7
REMARK VINA RESULT:      -4.4      6.456      8.689
REMARK  0 active torsions:
REMARK  status: ('A' for Active; 'I' for Inactive)
ROOT
HETATM    1 CL   LIG     1      14.158  31.113  18.271  1.00  0.00    -0.089 Cl
HETATM    2  C   LIG     1      13.985  32.012  16.742  1.00  0.00     0.191 A 
HETATM    3  C   LIG     1      15.091  33.007  16.574  1.00  0.00     0.079 A 
HETATM    4 CL   LIG     1      15.392  34.362  17.652  1.00  0.00    -0.083 Cl
HETATM    5  C   LIG     1      15.811  32.722  15.498  1.00  0.00     0.078 A 
HETATM    6 CL   LIG     1      17.202  33.630  14.929  1.00  0.00    -0.081 Cl
HETATM    7  C   LIG     1      15.263  31.538  14.864  1.00  0.00     0.078 A 
HETATM    8 CL   LIG     1      15.886  30.784  13.405  1.00  0.00    -0.081 Cl
HETATM    9  C   LIG     1      14.218  31.119  15.563  1.00  0.00     0.079 A 
HETATM   10 CL   LIG     1      13.243  29.712  15.163  1.00  0.00    -0.083 Cl
HETATM   11 CL   LIG     1      12.391  32.801  16.644  1.00  0.00    -0.089 Cl
ENDROOT
TORSDOF 0
ENDMDL
MODEL 8
REMARK VINA RESULT:      -4.4      6.473      8.083
REMARK  0 active torsions:
REMARK  status: ('A' for Active; 'I' for Inactive)
ROOT
HETATM    1 CL   LIG     1      12.377  32.753  16.649  1.00  0.00    -0.089 Cl
HETATM    2  C   LIG     1      13.976  31.972  16.746  1.00  0.00     0.191 A 
HETATM    3  C   LIG     1      14.214  31.083  15.565  1.00  0.00     0.079 A 
HETATM    4 CL   LIG     1      13.248  29.672  15.162  1.00  0.00    -0.083 Cl
HETATM    5  C   LIG     1      15.257  31.510  14.867  1.00  0.00     0.078 A 
HETATM    6 CL   LIG     1      15.885  30.763  13.408  1.00  0.00    -0.081 Cl
HETATM    7  C   LIG     1      15.797  32.696  15.504  1.00  0.00     0.078 A 
HETATM    8 CL   LIG     1      17.183  33.614  14.938  1.00  0.00    -0.081 Cl
HETATM    9  C   LIG     1      15.076  32.974  16.581  1.00  0.00     0.079 A 
HETATM   10 CL   LIG     1      15.368  34.328  17.662  1.00  0.00    -0.083 Cl
HETATM   11 CL   LIG     1      14.153  31.071  18.273  1.00  0.00    -0.089 Cl
ENDROOT
TORSDOF 0
ENDMDL
MODEL 9
REMARK VINA RESULT:      -4.2      1.821      4.316
REMARK  0 active torsions:
REMARK  status: ('A' for Active; 'I' for Inactive)
ROOT
HETATM    1 CL   LIG     1      14.939  36.841  21.627  1.00  0.00    -0.089 Cl
HETATM    2  C   LIG     1      16.606  36.946  22.247  1.00  0.00     0.191 A 
HETATM    3  C   LIG     1      16.714  37.972  23.332  1.00  0.00     0.079 A 
HETATM    4 CL   LIG     1      16.394  39.687  23.125  1.00  0.00    -0.083 Cl
HETATM    5  C   LIG     1      17.086  37.404  24.471  1.00  0.00     0.078 A 
HETATM    6 CL   LIG     1      17.332  38.238  25.996  1.00  0.00    -0.081 Cl
HETATM    7  C   LIG     1      17.256  35.979  24.254  1.00  0.00     0.078 A 
HETATM    8 CL   LIG     1      17.741  34.815  25.476  1.00  0.00    -0.081 Cl
HETATM    9  C   LIG     1      16.985  35.701  22.987  1.00  0.00     0.079 A 
HETATM   10 CL   LIG     1      17.060  34.096  22.276  1.00  0.00    -0.083 Cl
HETATM   11 CL   LIG     1      17.756  37.283  20.928  1.00  0.00    -0.089 Cl
ENDROOT
TORSDOF 0
ENDMDL
MODEL 10
REMARK VINA RESULT:      -4.1      1.813      3.497
REMARK  0 active torsions:
REMARK  status: ('A' for Active; 'I' for Inactive)
ROOT
HETATM    1 CL   LIG     1      17.767  37.235  20.854  1.00  0.00    -0.089 Cl
HETATM    2  C   LIG     1      16.612  36.901  22.169  1.00  0.00     0.191 A 
HETATM    3  C   LIG     1      16.994  35.664  22.921  1.00  0.00     0.079 A 
HETATM    4 CL   LIG     1      17.082  34.054  22.223  1.00  0.00    -0.083 Cl
HETATM    5  C   LIG     1      17.256  35.955  24.188  1.00  0.00     0.078 A 
HETATM    6 CL   LIG     1      17.742  34.803  25.421  1.00  0.00    -0.081 Cl
HETATM    7  C   LIG     1      17.077  37.380  24.392  1.00  0.00     0.078 A 
HETATM    8 CL   LIG     1      17.312  38.228  25.911  1.00  0.00    -0.081 Cl
HETATM    9  C   LIG     1      16.709  37.936  23.247  1.00  0.00     0.079 A 
HETATM   10 CL   LIG     1      16.380  39.648  23.024  1.00  0.00    -0.083 Cl
HETATM   11 CL   LIG     1      14.948  36.782  21.541  1.00  0.00    -0.089 Cl
ENDROOT
TORSDOF 0
ENDMDL
MODEL 11
REMARK VINA RESULT:      -3.9     15.563     16.252
REMARK  0 active torsions:
REMARK  status: ('A' for Active; 'I' for Inactive)
ROOT
HETATM    1 CL   LIG     1      21.879  23.000  21.373  1.00  0.00    -0.089 Cl
HETATM    2  C   LIG     1      23.364  22.045  21.126  1.00  0.00     0.191 A 
HETATM    3  C   LIG     1      23.862  22.177  19.721  1.00  0.00     0.079 A 
HETATM    4 CL   LIG     1      22.974  21.669  18.292  1.00  0.00    -0.083 Cl
HETATM    5  C   LIG     1      25.067  22.730  19.705  1.00  0.00     0.078 A 
HETATM    6 CL   LIG     1      26.018  23.067  18.269  1.00  0.00    -0.081 Cl
HETATM    7  C   LIG     1      25.474  23.011  21.069  1.00  0.00     0.078 A 
HETATM    8 CL   LIG     1      26.996  23.745  21.546  1.00  0.00    -0.081 Cl
HETATM    9  C   LIG     1      24.511  22.626  21.894  1.00  0.00     0.079 A 
HETATM   10 CL   LIG     1      24.572  22.776  23.644  1.00  0.00    -0.083 Cl
HETATM   11 CL   LIG     1      23.103  20.336  21.558  1.00  0.00    -0.089 Cl
ENDROOT
TORSDOF 0
ENDMDL
MODEL 12
REMARK VINA RESULT:      -3.9     15.579     16.542
REMARK  0 active torsions:
REMARK  status: ('A' for Active; 'I' for Inactive)
ROOT
HETATM    1 CL   LIG     1      23.125  20.322  21.537  1.00  0.00    -0.089 Cl
HETATM    2  C   LIG     1      23.374  22.036  21.118  1.00  0.00     0.191 A 
HETATM    3  C   LIG     1      24.517  22.619  21.889  1.00  0.00     0.079 A 
HETATM    4 CL   LIG     1      24.577  22.758  23.639  1.00  0.00    -0.083 Cl
HETATM    5  C   LIG     1      25.476  23.016  21.065  1.00  0.00     0.078 A 
HETATM    6 CL   LIG     1      26.994  23.757  21.546  1.00  0.00    -0.081 Cl
HETATM    7  C   LIG     1      25.071  22.741  19.700  1.00  0.00     0.078 A 
HETATM    8 CL   LIG     1      26.020  23.093  18.265  1.00  0.00    -0.081 Cl
HETATM    9  C   LIG     1      23.870  22.180  19.712  1.00  0.00     0.079 A 
HETATM   10 CL   LIG     1      22.985  21.675  18.280  1.00  0.00    -0.083 Cl
HETATM   11 CL   LIG     1      21.882  22.978  21.370  1.00  0.00    -0.089 Cl
ENDROOT
TORSDOF 0
ENDMDL
MODEL 13
REMARK VINA RESULT:      -3.5     16.250     17.697
REMARK  0 active torsions:
REMARK  status: ('A' for Active; 'I' for Inactive)
ROOT
HETATM    1 CL   LIG     1      21.882  23.002  21.325  1.00  0.00    -0.089 Cl
HETATM    2  C   LIG     1      23.280  21.915  21.126  1.00  0.00     0.191 A 
HETATM    3  C   LIG     1      23.202  20.757  22.072  1.00  0.00     0.079 A 
HETATM    4 CL   LIG     1      23.212  20.892  23.824  1.00  0.00    -0.083 Cl
HETATM    5  C   LIG     1      23.125  19.616  21.402  1.00  0.00     0.078 A 
HETATM    6 CL   LIG     1      23.017  18.017  22.117  1.00  0.00    -0.081 Cl
HETATM    7  C   LIG     1      23.143  19.902  19.980  1.00  0.00     0.078 A 
HETATM    8 CL   LIG     1      23.061  18.703  18.699  1.00  0.00    -0.081 Cl
HETATM    9  C   LIG     1      23.232  21.213  19.804  1.00  0.00     0.079 A 
HETATM   10 CL   LIG     1      23.285  22.014  18.241  1.00  0.00    -0.083 Cl
HETATM   11 CL   LIG     1      24.812  22.804  21.325  1.00  0.00    -0.089 Cl
ENDROOT
TORSDOF 0
ENDMDL
MODEL 14
REMARK VINA RESULT:      -3.3     16.058     16.861
REMARK  0 active torsions:
REMARK  status: ('A' for Active; 'I' for Inactive)
ROOT
HETATM    1 CL   LIG     1      26.682  21.478  18.349  1.00  0.00    -0.089 Cl
HETATM    2  C   LIG     1      25.811  22.792  19.182  1.00  0.00     0.191 A 
HETATM    3  C   LIG     1      24.405  22.389  19.500  1.00  0.00     0.079 A 
HETATM    4 CL   LIG     1      23.187  21.973  18.304  1.00  0.00    -0.083 Cl
HETATM    5  C   LIG     1      24.208  22.391  20.811  1.00  0.00     0.078 A 
HETATM    6 CL   LIG     1      22.703  21.983  21.618  1.00  0.00    -0.081 Cl
HETATM    7  C   LIG     1      25.437  22.786  21.472  1.00  0.00     0.078 A 
HETATM    8 CL   LIG     1      25.657  22.931  23.208  1.00  0.00    -0.081 Cl
HETATM    9  C   LIG     1      26.365  23.019  20.554  1.00  0.00     0.079 A 
HETATM   10 CL   LIG     1      28.012  23.523  20.900  1.00  0.00    -0.083 Cl
HETATM   11 CL   LIG     1      25.848  24.291  18.219  1.00  0.00    -0.089 Cl
ENDROOT
TORSDOF 0
ENDMDL
MODEL 15
REMARK VINA RESULT:      -3.2     15.730     16.893
REMARK  0 active torsions:
REMARK  status: ('A' for Active; 'I' for Inactive)
ROOT
HETATM    1 CL   LIG     1      26.981  20.960  21.668  1.00  0.00    -0.089 Cl
HETATM    2  C   LIG     1      26.111  22.393  21.062  1.00  0.00     0.191 A 
HETATM    3  C   LIG     1      25.605  22.168  19.671  1.00  0.00     0.079 A 
HETATM    4 CL   LIG     1      26.623  21.858  18.273  1.00  0.00    -0.083 Cl
HETATM    5  C   LIG     1      24.282  22.236  19.643  1.00  0.00     0.078 A 
HETATM    6 CL   LIG     1      23.278  22.032  18.217  1.00  0.00    -0.081 Cl
HETATM    7  C   LIG     1      23.795  22.507  20.982  1.00  0.00     0.078 A 
HETATM    8 CL   LIG     1      22.107  22.682  21.435  1.00  0.00    -0.081 Cl
HETATM    9  C   LIG     1      24.828  22.599  21.806  1.00  0.00     0.079 A 
HETATM   10 CL   LIG     1      24.711  22.918  23.531  1.00  0.00    -0.083 Cl
HETATM   11 CL   LIG     1      27.141  23.845  21.144  1.00  0.00    -0.089 Cl
ENDROOT
TORSDOF 0
ENDMDL
MODEL 16
REMARK VINA RESULT:      -3.1     16.281     17.557
REMARK  0 active torsions:
REMARK  status: ('A' for Active; 'I' for Inactive)
ROOT
HETATM    1 CL   LIG     1      25.480  20.357  18.724  1.00  0.00    -0.089 Cl
HETATM    2  C   LIG     1      24.069  21.117  19.503  1.00  0.00     0.191 A 
HETATM    3  C   LIG     1      23.348  20.142  20.381  1.00  0.00     0.079 A 
HETATM    4 CL   LIG     1      22.583  18.663  19.820  1.00  0.00    -0.083 Cl
HETATM    5  C   LIG     1      23.368  20.552  21.642  1.00  0.00     0.078 A 
HETATM    6 CL   LIG     1      22.641  19.710  23.001  1.00  0.00    -0.081 Cl
HETATM    7  C   LIG     1      24.087  21.809  21.719  1.00  0.00     0.078 A 
HETATM    8 CL   LIG     1      24.371  22.731  23.186  1.00  0.00    -0.081 Cl
HETATM    9  C   LIG     1      24.495  22.147  20.504  1.00  0.00     0.079 A 
HETATM   10 CL   LIG     1      25.409  23.598  20.120  1.00  0.00    -0.083 Cl
HETATM   11 CL   LIG     1      22.971  21.820  18.288  1.00  0.00    -0.089 Cl
ENDROOT
TORSDOF 0
ENDMDL
MODEL 17
REMARK VINA RESULT:      -3.1     16.020     16.949
REMARK  0 active torsions:
REMARK  status: ('A' for Active; 'I' for Inactive)
ROOT
HETATM    1 CL   LIG     1      26.510  20.819  22.109  1.00  0.00    -0.089 Cl
HETATM    2  C   LIG     1      25.346  22.098  21.678  1.00  0.00     0.191 A 
HETATM    3  C   LIG     1      25.992  23.154  20.837  1.00  0.00     0.079 A 
HETATM    4 CL   LIG     1      27.330  24.169  21.355  1.00  0.00    -0.083 Cl
HETATM    5  C   LIG     1      25.414  23.216  19.646  1.00  0.00     0.078 A 
HETATM    6 CL   LIG     1      25.858  24.314  18.350  1.00  0.00    -0.081 Cl
HETATM    7  C   LIG     1      24.352  22.229  19.585  1.00  0.00     0.078 A 
HETATM    8 CL   LIG     1      23.307  21.942  18.203  1.00  0.00    -0.081 Cl
HETATM    9  C   LIG     1      24.300  21.581  20.740  1.00  0.00     0.079 A 
HETATM   10 CL   LIG     1      23.164  20.294  21.116  1.00  0.00    -0.083 Cl
HETATM   11 CL   LIG     1      24.606  22.804  23.137  1.00  0.00    -0.089 Cl
ENDROOT
TORSDOF 0
ENDMDL
MODEL 18
REMARK VINA RESULT:      -3.1     15.899     17.134
REMARK  0 active torsions:
REMARK  status: ('A' for Active; 'I' for Inactive)
ROOT
HETATM    1 CL   LIG     1      25.930  25.149  19.688  1.00  0.00    -0.089 Cl
HETATM    2  C   LIG     1      26.038  23.414  20.081  1.00  0.00     0.191 A 
HETATM    3  C   LIG     1      24.678  22.823  20.288  1.00  0.00     0.079 A 
HETATM    4 CL   LIG     1      23.552  23.315  21.544  1.00  0.00    -0.083 Cl
HETATM    5  C   LIG     1      24.444  21.876  19.391  1.00  0.00     0.078 A 
HETATM    6 CL   LIG     1      22.973  20.924  19.271  1.00  0.00    -0.081 Cl
HETATM    7  C   LIG     1      25.599  21.751  18.522  1.00  0.00     0.078 A 
HETATM    8 CL   LIG     1      25.750  20.625  17.183  1.00  0.00    -0.081 Cl
HETATM    9  C   LIG     1      26.520  22.625  18.903  1.00  0.00     0.079 A 
HETATM   10 CL   LIG     1      28.088  22.828  18.135  1.00  0.00    -0.083 Cl
HETATM   11 CL   LIG     1      27.078  23.147  21.503  1.00  0.00    -0.089 Cl
ENDROOT
TORSDOF 0
ENDMDL
MODEL 19
REMARK VINA RESULT:      -3.1     15.891     17.086
REMARK  0 active torsions:
REMARK  status: ('A' for Active; 'I' for Inactive)
ROOT
HETATM    1 CL   LIG     1      27.054  23.159  21.563  1.00  0.00    -0.089 Cl
HETATM    2  C   LIG     1      26.033  23.425  20.126  1.00  0.00     0.191 A 
HETATM    3  C   LIG     1      26.534  22.637  18.956  1.00  0.00     0.079 A 
HETATM    4 CL   LIG     1      28.111  22.846  18.209  1.00  0.00    -0.083 Cl
HETATM    5  C   LIG     1      25.620  21.762  18.562  1.00  0.00     0.078 A 
HETATM    6 CL   LIG     1      25.793  20.637  17.225  1.00  0.00    -0.081 Cl
HETATM    7  C   LIG     1      24.453  21.882  19.414  1.00  0.00     0.078 A 
HETATM    8 CL   LIG     1      22.987  20.925  19.274  1.00  0.00    -0.081 Cl
HETATM    9  C   LIG     1      24.672  22.829  20.315  1.00  0.00     0.079 A 
HETATM   10 CL   LIG     1      23.528  23.317  21.556  1.00  0.00    -0.083 Cl
HETATM   11 CL   LIG     1      25.924  25.160  19.734  1.00  0.00    -0.089 Cl
ENDROOT
TORSDOF 0
ENDMDL
MODEL 20
REMARK VINA RESULT:      -3.1     15.699     16.917
REMARK  0 active torsions:
REMARK  status: ('A' for Active; 'I' for Inactive)
ROOT
HETATM    1 CL   LIG     1      23.757  20.764  20.112  1.00  0.00    -0.089 Cl
HETATM    2  C   LIG     1      23.581  21.903  21.471  1.00  0.00     0.191 A 
HETATM    3  C   LIG     1      23.588  21.181  22.783  1.00  0.00     0.079 A 
HETATM    4 CL   LIG     1      22.397  19.987  23.275  1.00  0.00    -0.083 Cl
HETATM    5  C   LIG     1      24.618  21.571  23.521  1.00  0.00     0.078 A 
HETATM    6 CL   LIG     1      25.005  20.980  25.128  1.00  0.00    -0.081 Cl
HETATM    7  C   LIG     1      25.376  22.565  22.785  1.00  0.00     0.078 A 
HETATM    8 CL   LIG     1      26.827  23.370  23.360  1.00  0.00    -0.081 Cl
HETATM    9  C   LIG     1      24.796  22.767  21.610  1.00  0.00     0.079 A 
HETATM   10 CL   LIG     1      25.373  23.890  20.387  1.00  0.00    -0.083 Cl
HETATM   11 CL   LIG     1      22.109  22.890  21.289  1.00  0.00    -0.089 Cl
ENDROOT
TORSDOF 0
ENDMDL
