MODEL 1
REMARK VINA RESULT:      -6.0      0.000      0.000
REMARK  3 active torsions:
REMARK  status: ('A' for Active; 'I' for Inactive)
REMARK    1  A    between atoms: C_2  and  C_3 
REMARK    2  A    between atoms: C_2  and  C_5 
REMARK    3  A    between atoms: C_2  and  C_7 
REMARK       I    between atoms: C_7  and  N_8 
REMARK       I    between atoms: N_8  and  C_9 
REMARK       I    between atoms: C_9  and  N_10 
ROOT
HETATM    1  C   LIG     1      17.346  36.625  20.931  1.00  0.00     0.245 C 
HETATM    2  N   LIG     1      18.065  37.867  21.049  1.00  0.00    -0.278 N 
HETATM    3  C   LIG     1      18.982  38.362  20.061  1.00  0.00     0.320 C 
HETATM    4  N   LIG     1      19.634  39.616  20.263  1.00  0.00    -0.352 N 
HETATM    5  O   LIG     1      19.224  37.703  19.014  1.00  0.00    -0.247 OA
HETATM    6  O   LIG     1      17.495  35.908  19.903  1.00  0.00    -0.271 OA
HETATM    7  H   LIG     1      17.909  38.457  21.895  1.00  0.00     0.173 HD
HETATM    8  H   LIG     1      19.450  40.179  21.122  1.00  0.00     0.160 HD
HETATM    9  H   LIG     1      20.303  39.983  19.550  1.00  0.00     0.160 HD
ENDROOT
BRANCH   1  10
HETATM   10  C   LIG     1      16.402  36.172  22.037  1.00  0.00     0.098 C 
HETATM   11 BR   LIG     1      16.006  37.682  23.234  1.00  0.00    -0.075 Br
BRANCH  10  12
HETATM   12  C   LIG     1      15.073  35.710  21.377  1.00  0.00     0.026 C 
HETATM   13  C   LIG     1      14.874  34.190  21.317  1.00  0.00     0.007 C 
ENDBRANCH  10  12
BRANCH  10  14
HETATM   14  C   LIG     1      17.043  35.030  22.873  1.00  0.00     0.026 C 
HETATM   15  C   LIG     1      17.187  35.352  24.365  1.00  0.00     0.007 C 
ENDBRANCH  10  14
ENDBRANCH   1  10
TORSDOF 3
ENDMDL
MODEL 2
REMARK VINA RESULT:      -5.8      3.081      4.437
REMARK  3 active torsions:
REMARK  status: ('A' for Active; 'I' for Inactive)
REMARK    1  A    between atoms: C_2  and  C_3 
REMARK    2  A    between atoms: C_2  and  C_5 
REMARK    3  A    between atoms: C_2  and  C_7 
REMARK       I    between atoms: C_7  and  N_8 
REMARK       I    between atoms: N_8  and  C_9 
REMARK       I    between atoms: C_9  and  N_10 
ROOT
HETATM    1  C   LIG     1      17.166  36.092  23.440  1.00  0.00     0.245 C 
HETATM    2  N   LIG     1      17.707  36.846  24.542  1.00  0.00    -0.278 N 
HETATM    3  C   LIG     1      18.108  36.265  25.792  1.00  0.00     0.320 C 
HETATM    4  N   LIG     1      18.650  37.096  26.818  1.00  0.00    -0.352 N 
HETATM    5  O   LIG     1      17.987  35.028  26.000  1.00  0.00    -0.247 OA
HETATM    6  O   LIG     1      17.036  34.841  23.538  1.00  0.00    -0.271 OA
HETATM    7  H   LIG     1      17.829  37.876  24.432  1.00  0.00     0.173 HD
HETATM    8  H   LIG     1      18.759  38.123  26.670  1.00  0.00     0.160 HD
HETATM    9  H   LIG     1      18.944  36.682  27.731  1.00  0.00     0.160 HD
ENDROOT
BRANCH   1  10
HETATM   10  C   LIG     1      16.753  36.796  22.153  1.00  0.00     0.098 C 
HETATM   11 BR   LIG     1      17.378  38.661  22.185  1.00  0.00    -0.075 Br
BRANCH  10  12
HETATM   12  C   LIG     1      17.442  36.069  20.965  1.00  0.00     0.026 C 
HETATM   13  C   LIG     1      18.426  36.929  20.163  1.00  0.00     0.007 C 
ENDBRANCH  10  12
BRANCH  10  14
HETATM   14  C   LIG     1      15.207  36.793  21.996  1.00  0.00     0.026 C 
HETATM   15  C   LIG     1      14.668  35.640  21.142  1.00  0.00     0.007 C 
ENDBRANCH  10  14
ENDBRANCH   1  10
TORSDOF 3
ENDMDL
MODEL 3
REMARK VINA RESULT:      -5.8      3.281      4.392
REMARK  3 active torsions:
REMARK  status: ('A' for Active; 'I' for Inactive)
REMARK    1  A    between atoms: C_2  and  C_3 
REMARK    2  A    between atoms: C_2  and  C_5 
REMARK    3  A    between atoms: C_2  and  C_7 
REMARK       I    between atoms: C_7  and  N_8 
REMARK       I    between atoms: N_8  and  C_9 
REMARK       I    between atoms: C_9  and  N_10 
ROOT
HETATM    1  C   LIG     1      17.118  36.193  23.481  1.00  0.00     0.245 C 
HETATM    2  N   LIG     1      17.660  36.870  24.632  1.00  0.00    -0.278 N 
HETATM    3  C   LIG     1      18.099  36.200  25.824  1.00  0.00     0.320 C 
HETATM    4  N   LIG     1      18.638  36.960  26.906  1.00  0.00    -0.352 N 
HETATM    5  O   LIG     1      18.014  34.948  25.932  1.00  0.00    -0.247 OA
HETATM    6  O   LIG     1      17.022  34.936  23.480  1.00  0.00    -0.271 OA
HETATM    7  H   LIG     1      17.753  37.908  24.605  1.00  0.00     0.173 HD
HETATM    8  H   LIG     1      18.717  37.998  26.840  1.00  0.00     0.160 HD
HETATM    9  H   LIG     1      18.960  36.481  27.777  1.00  0.00     0.160 HD
ENDROOT
BRANCH   1  10
HETATM   10  C   LIG     1      16.663  36.988  22.264  1.00  0.00     0.098 C 
HETATM   11 BR   LIG     1      17.610  36.350  20.662  1.00  0.00    -0.075 Br
BRANCH  10  12
HETATM   12  C   LIG     1      15.143  36.738  22.066  1.00  0.00     0.026 C 
HETATM   13  C   LIG     1      14.793  35.621  21.075  1.00  0.00     0.007 C 
ENDBRANCH  10  12
BRANCH  10  14
HETATM   14  C   LIG     1      16.966  38.501  22.450  1.00  0.00     0.026 C 
HETATM   15  C   LIG     1      18.202  38.990  21.687  1.00  0.00     0.007 C 
ENDBRANCH  10  14
ENDBRANCH   1  10
TORSDOF 3
ENDMDL
MODEL 4
REMARK VINA RESULT:      -5.6      2.806      4.427
REMARK  3 active torsions:
REMARK  status: ('A' for Active; 'I' for Inactive)
REMARK    1  A    between atoms: C_2  and  C_3 
REMARK    2  A    between atoms: C_2  and  C_5 
REMARK    3  A    between atoms: C_2  and  C_7 
REMARK       I    between atoms: C_7  and  N_8 
REMARK       I    between atoms: N_8  and  C_9 
REMARK       I    between atoms: C_9  and  N_10 
ROOT
HETATM    1  C   LIG     1      16.370  35.271  20.723  1.00  0.00     0.245 C 
HETATM    2  N   LIG     1      15.617  34.061  20.935  1.00  0.00    -0.278 N 
HETATM    3  C   LIG     1      15.236  33.158  19.887  1.00  0.00     0.320 C 
HETATM    4  N   LIG     1      14.504  31.974  20.202  1.00  0.00    -0.352 N 
HETATM    5  O   LIG     1      15.537  33.395  18.686  1.00  0.00    -0.247 OA
HETATM    6  O   LIG     1      16.746  35.580  19.559  1.00  0.00    -0.271 OA
HETATM    7  H   LIG     1      15.336  33.811  21.908  1.00  0.00     0.173 HD
HETATM    8  H   LIG     1      14.242  31.756  21.189  1.00  0.00     0.160 HD
HETATM    9  H   LIG     1      14.222  31.311  19.445  1.00  0.00     0.160 HD
ENDROOT
BRANCH   1  10
HETATM   10  C   LIG     1      16.718  36.179  21.896  1.00  0.00     0.098 C 
HETATM   11 BR   LIG     1      15.144  37.242  22.405  1.00  0.00    -0.075 Br
BRANCH  10  12
HETATM   12  C   LIG     1      17.111  35.279  23.100  1.00  0.00     0.026 C 
HETATM   13  C   LIG     1      17.310  36.022  24.426  1.00  0.00     0.007 C 
ENDBRANCH  10  12
BRANCH  10  14
HETATM   14  C   LIG     1      17.872  37.148  21.517  1.00  0.00     0.026 C 
HETATM   15  C   LIG     1      17.533  38.630  21.715  1.00  0.00     0.007 C 
ENDBRANCH  10  14
ENDBRANCH   1  10
TORSDOF 3
ENDMDL
MODEL 5
REMARK VINA RESULT:      -5.5      3.553      5.021
REMARK  3 active torsions:
REMARK  status: ('A' for Active; 'I' for Inactive)
REMARK    1  A    between atoms: C_2  and  C_3 
REMARK    2  A    between atoms: C_2  and  C_5 
REMARK    3  A    between atoms: C_2  and  C_7 
REMARK       I    between atoms: C_7  and  N_8 
REMARK       I    between atoms: N_8  and  C_9 
REMARK       I    between atoms: C_9  and  N_10 
ROOT
HETATM    1  C   LIG     1      17.726  37.453  23.890  1.00  0.00     0.245 C 
HETATM    2  N   LIG     1      17.272  36.278  24.588  1.00  0.00    -0.278 N 
HETATM    3  C   LIG     1      17.717  35.902  25.901  1.00  0.00     0.320 C 
HETATM    4  N   LIG     1      17.194  34.725  26.517  1.00  0.00    -0.352 N 
HETATM    5  O   LIG     1      18.567  36.596  26.520  1.00  0.00    -0.247 OA
HETATM    6  O   LIG     1      18.554  38.230  24.440  1.00  0.00    -0.271 OA
HETATM    7  H   LIG     1      16.570  35.661  24.127  1.00  0.00     0.173 HD
HETATM    8  H   LIG     1      16.490  34.134  26.023  1.00  0.00     0.160 HD
HETATM    9  H   LIG     1      17.513  34.444  27.471  1.00  0.00     0.160 HD
ENDROOT
BRANCH   1  10
HETATM   10  C   LIG     1      17.209  37.766  22.491  1.00  0.00     0.098 C 
HETATM   11 BR   LIG     1      15.244  37.699  22.478  1.00  0.00    -0.075 Br
BRANCH  10  12
HETATM   12  C   LIG     1      17.652  39.210  22.127  1.00  0.00     0.026 C 
HETATM   13  C   LIG     1      18.677  39.306  20.991  1.00  0.00     0.007 C 
ENDBRANCH  10  12
BRANCH  10  14
HETATM   14  C   LIG     1      17.749  36.734  21.462  1.00  0.00     0.026 C 
HETATM   15  C   LIG     1      16.725  35.673  21.046  1.00  0.00     0.007 C 
ENDBRANCH  10  14
ENDBRANCH   1  10
TORSDOF 3
ENDMDL
MODEL 6
REMARK VINA RESULT:      -4.6      6.285      7.125
REMARK  3 active torsions:
REMARK  status: ('A' for Active; 'I' for Inactive)
REMARK    1  A    between atoms: C_2  and  C_3 
REMARK    2  A    between atoms: C_2  and  C_5 
REMARK    3  A    between atoms: C_2  and  C_7 
REMARK       I    between atoms: C_7  and  N_8 
REMARK       I    between atoms: N_8  and  C_9 
REMARK       I    between atoms: C_9  and  N_10 
ROOT
HETATM    1  C   LIG     1      15.693  33.460  16.046  1.00  0.00     0.245 C 
HETATM    2  N   LIG     1      16.772  33.226  15.121  1.00  0.00    -0.278 N 
HETATM    3  C   LIG     1      17.564  34.268  14.530  1.00  0.00     0.320 C 
HETATM    4  N   LIG     1      18.624  33.932  13.636  1.00  0.00    -0.352 N 
HETATM    5  O   LIG     1      17.335  35.480  14.788  1.00  0.00    -0.247 OA
HETATM    6  O   LIG     1      15.407  34.639  16.392  1.00  0.00    -0.271 OA
HETATM    7  H   LIG     1      17.008  32.243  14.866  1.00  0.00     0.173 HD
HETATM    8  H   LIG     1      18.832  32.935  13.407  1.00  0.00     0.160 HD
HETATM    9  H   LIG     1      19.205  34.684  13.201  1.00  0.00     0.160 HD
ENDROOT
BRANCH   1  10
HETATM   10  C   LIG     1      14.896  32.291  16.613  1.00  0.00     0.098 C 
HETATM   11 BR   LIG     1      14.901  30.799  15.332  1.00  0.00    -0.075 Br
BRANCH  10  12
HETATM   12  C   LIG     1      15.597  31.820  17.917  1.00  0.00     0.026 C 
HETATM   13  C   LIG     1      15.071  32.464  19.205  1.00  0.00     0.007 C 
ENDBRANCH  10  12
BRANCH  10  14
HETATM   14  C   LIG     1      13.424  32.710  16.884  1.00  0.00     0.026 C 
HETATM   15  C   LIG     1      12.407  31.581  16.684  1.00  0.00     0.007 C 
ENDBRANCH  10  14
ENDBRANCH   1  10
TORSDOF 3
ENDMDL
MODEL 7
REMARK VINA RESULT:      -4.5      6.339      6.978
REMARK  3 active torsions:
REMARK  status: ('A' for Active; 'I' for Inactive)
REMARK    1  A    between atoms: C_2  and  C_3 
REMARK    2  A    between atoms: C_2  and  C_5 
REMARK    3  A    between atoms: C_2  and  C_7 
REMARK       I    between atoms: C_7  and  N_8 
REMARK       I    between atoms: N_8  and  C_9 
REMARK       I    between atoms: C_9  and  N_10 
ROOT
HETATM    1  C   LIG     1      15.753  33.416  16.003  1.00  0.00     0.245 C 
HETATM    2  N   LIG     1      16.843  33.233  15.079  1.00  0.00    -0.278 N 
HETATM    3  C   LIG     1      17.570  34.310  14.469  1.00  0.00     0.320 C 
HETATM    4  N   LIG     1      18.647  34.024  13.578  1.00  0.00    -0.352 N 
HETATM    5  O   LIG     1      17.269  35.511  14.708  1.00  0.00    -0.247 OA
HETATM    6  O   LIG     1      15.398  34.581  16.331  1.00  0.00    -0.271 OA
HETATM    7  H   LIG     1      17.138  32.261  14.839  1.00  0.00     0.173 HD
HETATM    8  H   LIG     1      18.914  33.039  13.364  1.00  0.00     0.160 HD
HETATM    9  H   LIG     1      19.181  34.803  13.130  1.00  0.00     0.160 HD
ENDROOT
BRANCH   1  10
HETATM   10  C   LIG     1      15.029  32.212  16.591  1.00  0.00     0.098 C 
HETATM   11 BR   LIG     1      13.109  32.602  16.753  1.00  0.00    -0.075 Br
BRANCH  10  12
HETATM   12  C   LIG     1      15.206  31.019  15.611  1.00  0.00     0.026 C 
HETATM   13  C   LIG     1      13.898  30.383  15.123  1.00  0.00     0.007 C 
ENDBRANCH  10  12
BRANCH  10  14
HETATM   14  C   LIG     1      15.587  31.870  18.001  1.00  0.00     0.026 C 
HETATM   15  C   LIG     1      14.516  31.790  19.095  1.00  0.00     0.007 C 
ENDBRANCH  10  14
ENDBRANCH   1  10
TORSDOF 3
ENDMDL
MODEL 8
REMARK VINA RESULT:      -4.3      7.080      8.086
REMARK  3 active torsions:
REMARK  status: ('A' for Active; 'I' for Inactive)
REMARK    1  A    between atoms: C_2  and  C_3 
REMARK    2  A    between atoms: C_2  and  C_5 
REMARK    3  A    between atoms: C_2  and  C_7 
REMARK       I    between atoms: C_7  and  N_8 
REMARK       I    between atoms: N_8  and  C_9 
REMARK       I    between atoms: C_9  and  N_10 
ROOT
HETATM    1  C   LIG     1      15.377  32.304  15.600  1.00  0.00     0.245 C 
HETATM    2  N   LIG     1      15.070  31.047  14.968  1.00  0.00    -0.278 N 
HETATM    3  C   LIG     1      15.647  30.609  13.728  1.00  0.00     0.320 C 
HETATM    4  N   LIG     1      15.290  29.336  13.191  1.00  0.00    -0.352 N 
HETATM    5  O   LIG     1      16.467  31.334  13.103  1.00  0.00    -0.247 OA
HETATM    6  O   LIG     1      16.211  33.087  15.068  1.00  0.00    -0.271 OA
HETATM    7  H   LIG     1      14.396  30.403  15.435  1.00  0.00     0.173 HD
HETATM    8  H   LIG     1      14.613  28.718  13.690  1.00  0.00     0.160 HD
HETATM    9  H   LIG     1      15.705  29.009  12.289  1.00  0.00     0.160 HD
ENDROOT
BRANCH   1  10
HETATM   10  C   LIG     1      14.704  32.693  16.910  1.00  0.00     0.098 C 
HETATM   11 BR   LIG     1      12.857  32.018  16.936  1.00  0.00    -0.075 Br
BRANCH  10  12
HETATM   12  C   LIG     1      15.487  32.020  18.071  1.00  0.00     0.026 C 
HETATM   13  C   LIG     1      14.622  31.540  19.243  1.00  0.00     0.007 C 
ENDBRANCH  10  12
BRANCH  10  14
HETATM   14  C   LIG     1      14.671  34.239  17.074  1.00  0.00     0.026 C 
HETATM   15  C   LIG     1      15.423  34.753  18.306  1.00  0.00     0.007 C 
ENDBRANCH  10  14
ENDBRANCH   1  10
TORSDOF 3
ENDMDL
MODEL 9
REMARK VINA RESULT:      -4.0      2.861      4.074
REMARK  3 active torsions:
REMARK  status: ('A' for Active; 'I' for Inactive)
REMARK    1  A    between atoms: C_2  and  C_3 
REMARK    2  A    between atoms: C_2  and  C_5 
REMARK    3  A    between atoms: C_2  and  C_7 
REMARK       I    between atoms: C_7  and  N_8 
REMARK       I    between atoms: N_8  and  C_9 
REMARK       I    between atoms: C_9  and  N_10 
ROOT
HETATM    1  C   LIG     1      16.505  35.582  21.658  1.00  0.00     0.245 C 
HETATM    2  N   LIG     1      15.929  35.552  20.337  1.00  0.00    -0.278 N 
HETATM    3  C   LIG     1      15.678  34.348  19.597  1.00  0.00     0.320 C 
HETATM    4  N   LIG     1      15.087  34.422  18.300  1.00  0.00    -0.352 N 
HETATM    5  O   LIG     1      15.974  33.220  20.076  1.00  0.00    -0.247 OA
HETATM    6  O   LIG     1      16.806  34.502  22.236  1.00  0.00    -0.271 OA
HETATM    7  H   LIG     1      15.665  36.454  19.886  1.00  0.00     0.173 HD
HETATM    8  H   LIG     1      14.834  35.344  17.883  1.00  0.00     0.160 HD
HETATM    9  H   LIG     1      14.901  33.551  17.755  1.00  0.00     0.160 HD
ENDROOT
BRANCH   1  10
HETATM   10  C   LIG     1      16.749  36.910  22.362  1.00  0.00     0.098 C 
HETATM   11 BR   LIG     1      17.428  36.585  24.179  1.00  0.00    -0.075 Br
BRANCH  10  12
HETATM   12  C   LIG     1      17.835  37.685  21.566  1.00  0.00     0.026 C 
HETATM   13  C   LIG     1      18.441  36.919  20.384  1.00  0.00     0.007 C 
ENDBRANCH  10  12
BRANCH  10  14
HETATM   14  C   LIG     1      15.432  37.729  22.463  1.00  0.00     0.026 C 
HETATM   15  C   LIG     1      15.645  39.237  22.637  1.00  0.00     0.007 C 
ENDBRANCH  10  14
ENDBRANCH   1  10
TORSDOF 3
ENDMDL
MODEL 10
REMARK VINA RESULT:      -3.9      7.096      8.272
REMARK  3 active torsions:
REMARK  status: ('A' for Active; 'I' for Inactive)
REMARK    1  A    between atoms: C_2  and  C_3 
REMARK    2  A    between atoms: C_2  and  C_5 
REMARK    3  A    between atoms: C_2  and  C_7 
REMARK       I    between atoms: C_7  and  N_8 
REMARK       I    between atoms: N_8  and  C_9 
REMARK       I    between atoms: C_9  and  N_10 
ROOT
HETATM    1  C   LIG     1      15.288  32.407  15.607  1.00  0.00     0.245 C 
HETATM    2  N   LIG     1      15.006  31.141  14.981  1.00  0.00    -0.278 N 
HETATM    3  C   LIG     1      15.656  30.673  13.789  1.00  0.00     0.320 C 
HETATM    4  N   LIG     1      15.319  29.393  13.254  1.00  0.00    -0.352 N 
HETATM    5  O   LIG     1      16.522  31.377  13.204  1.00  0.00    -0.247 OA
HETATM    6  O   LIG     1      16.163  33.171  15.115  1.00  0.00    -0.271 OA
HETATM    7  H   LIG     1      14.297  30.513  15.416  1.00  0.00     0.173 HD
HETATM    8  H   LIG     1      14.605  28.792  13.720  1.00  0.00     0.160 HD
HETATM    9  H   LIG     1      15.786  29.045  12.387  1.00  0.00     0.160 HD
ENDROOT
BRANCH   1  10
HETATM   10  C   LIG     1      14.538  32.828  16.865  1.00  0.00     0.098 C 
HETATM   11 BR   LIG     1      15.232  31.840  18.417  1.00  0.00    -0.075 Br
BRANCH  10  12
HETATM   12  C   LIG     1      14.796  34.343  17.094  1.00  0.00     0.026 C 
HETATM   13  C   LIG     1      15.394  34.699  18.460  1.00  0.00     0.007 C 
ENDBRANCH  10  12
BRANCH  10  14
HETATM   14  C   LIG     1      13.019  32.530  16.724  1.00  0.00     0.026 C 
HETATM   15  C   LIG     1      12.661  31.044  16.833  1.00  0.00     0.007 C 
ENDBRANCH  10  14
ENDBRANCH   1  10
TORSDOF 3
ENDMDL
MODEL 11
REMARK VINA RESULT:      -3.8     15.507     16.042
REMARK  3 active torsions:
REMARK  status: ('A' for Active; 'I' for Inactive)
REMARK    1  A    between atoms: C_2  and  C_3 
REMARK    2  A    between atoms: C_2  and  C_5 
REMARK    3  A    between atoms: C_2  and  C_7 
REMARK       I    between atoms: C_7  and  N_8 
REMARK       I    between atoms: N_8  and  C_9 
REMARK       I    between atoms: C_9  and  N_10 
ROOT
HETATM    1  C   LIG     1      25.286  22.782  19.128  1.00  0.00     0.245 C 
HETATM    2  N   LIG     1      25.626  24.089  19.628  1.00  0.00    -0.278 N 
HETATM    3  C   LIG     1      26.672  24.910  19.085  1.00  0.00     0.320 C 
HETATM    4  N   LIG     1      26.922  26.200  19.642  1.00  0.00    -0.352 N 
HETATM    5  O   LIG     1      27.378  24.507  18.122  1.00  0.00    -0.247 OA
HETATM    6  O   LIG     1      25.914  22.303  18.144  1.00  0.00    -0.271 OA
HETATM    7  H   LIG     1      25.080  24.478  20.427  1.00  0.00     0.173 HD
HETATM    8  H   LIG     1      26.351  26.556  20.440  1.00  0.00     0.160 HD
HETATM    9  H   LIG     1      27.681  26.804  19.253  1.00  0.00     0.160 HD
ENDROOT
BRANCH   1  10
HETATM   10  C   LIG     1      24.168  21.975  19.776  1.00  0.00     0.098 C 
HETATM   11 BR   LIG     1      24.819  20.173  20.220  1.00  0.00    -0.075 Br
BRANCH  10  12
HETATM   12  C   LIG     1      23.764  22.688  21.096  1.00  0.00     0.026 C 
HETATM   13  C   LIG     1      22.255  22.864  21.302  1.00  0.00     0.007 C 
ENDBRANCH  10  12
BRANCH  10  14
HETATM   14  C   LIG     1      22.956  21.843  18.813  1.00  0.00     0.026 C 
HETATM   15  C   LIG     1      22.875  20.493  18.091  1.00  0.00     0.007 C 
ENDBRANCH  10  14
ENDBRANCH   1  10
TORSDOF 3
ENDMDL
MODEL 12
REMARK VINA RESULT:      -3.8      7.414      8.600
REMARK  3 active torsions:
REMARK  status: ('A' for Active; 'I' for Inactive)
REMARK    1  A    between atoms: C_2  and  C_3 
REMARK    2  A    between atoms: C_2  and  C_5 
REMARK    3  A    between atoms: C_2  and  C_7 
REMARK       I    between atoms: C_7  and  N_8 
REMARK       I    between atoms: N_8  and  C_9 
REMARK       I    between atoms: C_9  and  N_10 
ROOT
HETATM    1  C   LIG     1      14.846  31.459  15.779  1.00  0.00     0.245 C 
HETATM    2  N   LIG     1      14.247  30.274  15.220  1.00  0.00    -0.278 N 
HETATM    3  C   LIG     1      14.784  29.555  14.099  1.00  0.00     0.320 C 
HETATM    4  N   LIG     1      14.125  28.379  13.629  1.00  0.00    -0.352 N 
HETATM    5  O   LIG     1      15.831  29.948  13.519  1.00  0.00    -0.247 OA
HETATM    6  O   LIG     1      15.915  31.913  15.288  1.00  0.00    -0.271 OA
HETATM    7  H   LIG     1      13.376  29.899  15.655  1.00  0.00     0.173 HD
HETATM    8  H   LIG     1      13.256  28.035  14.092  1.00  0.00     0.160 HD
HETATM    9  H   LIG     1      14.508  27.851  12.813  1.00  0.00     0.160 HD
ENDROOT
BRANCH   1  10
HETATM   10  C   LIG     1      14.198  32.165  16.963  1.00  0.00     0.098 C 
HETATM   11 BR   LIG     1      14.766  34.047  17.008  1.00  0.00    -0.075 Br
BRANCH  10  12
HETATM   12  C   LIG     1      12.657  32.123  16.764  1.00  0.00     0.026 C 
HETATM   13  C   LIG     1      11.993  33.490  16.563  1.00  0.00     0.007 C 
ENDBRANCH  10  12
BRANCH  10  14
HETATM   14  C   LIG     1      14.612  31.488  18.300  1.00  0.00     0.026 C 
HETATM   15  C   LIG     1      15.333  32.424  19.277  1.00  0.00     0.007 C 
ENDBRANCH  10  14
ENDBRANCH   1  10
TORSDOF 3
ENDMDL
MODEL 13
REMARK VINA RESULT:      -3.6     15.468     15.963
REMARK  3 active torsions:
REMARK  status: ('A' for Active; 'I' for Inactive)
REMARK    1  A    between atoms: C_2  and  C_3 
REMARK    2  A    between atoms: C_2  and  C_5 
REMARK    3  A    between atoms: C_2  and  C_7 
REMARK       I    between atoms: C_7  and  N_8 
REMARK       I    between atoms: N_8  and  C_9 
REMARK       I    between atoms: C_9  and  N_10 
ROOT
HETATM    1  C   LIG     1      25.454  22.981  19.255  1.00  0.00     0.245 C 
HETATM    2  N   LIG     1      25.831  24.293  19.714  1.00  0.00    -0.278 N 
HETATM    3  C   LIG     1      26.803  25.125  19.062  1.00  0.00     0.320 C 
HETATM    4  N   LIG     1      27.095  26.420  19.586  1.00  0.00    -0.352 N 
HETATM    5  O   LIG     1      27.406  24.727  18.029  1.00  0.00    -0.247 OA
HETATM    6  O   LIG     1      25.979  22.507  18.211  1.00  0.00    -0.271 OA
HETATM    7  H   LIG     1      25.368  24.678  20.567  1.00  0.00     0.173 HD
HETATM    8  H   LIG     1      26.609  26.770  20.440  1.00  0.00     0.160 HD
HETATM    9  H   LIG     1      27.801  27.031  19.117  1.00  0.00     0.160 HD
ENDROOT
BRANCH   1  10
HETATM   10  C   LIG     1      24.422  22.163  20.021  1.00  0.00     0.098 C 
HETATM   11 BR   LIG     1      22.956  21.646  18.817  1.00  0.00    -0.075 Br
BRANCH  10  12
HETATM   12  C   LIG     1      25.116  20.870  20.532  1.00  0.00     0.026 C 
HETATM   13  C   LIG     1      24.250  19.605  20.475  1.00  0.00     0.007 C 
ENDBRANCH  10  12
BRANCH  10  14
HETATM   14  C   LIG     1      23.830  22.988  21.198  1.00  0.00     0.026 C 
HETATM   15  C   LIG     1      22.312  22.850  21.358  1.00  0.00     0.007 C 
ENDBRANCH  10  14
ENDBRANCH   1  10
TORSDOF 3
ENDMDL
MODEL 14
REMARK VINA RESULT:      -3.5     18.024     18.949
REMARK  3 active torsions:
REMARK  status: ('A' for Active; 'I' for Inactive)
REMARK    1  A    between atoms: C_2  and  C_3 
REMARK    2  A    between atoms: C_2  and  C_5 
REMARK    3  A    between atoms: C_2  and  C_7 
REMARK       I    between atoms: C_7  and  N_8 
REMARK       I    between atoms: N_8  and  C_9 
REMARK       I    between atoms: C_9  and  N_10 
ROOT
HETATM    1  C   LIG     1      27.192  29.113  35.318  1.00  0.00     0.245 C 
HETATM    2  N   LIG     1      26.787  28.517  34.071  1.00  0.00    -0.278 N 
HETATM    3  C   LIG     1      26.539  27.114  33.894  1.00  0.00     0.320 C 
HETATM    4  N   LIG     1      26.124  26.622  32.620  1.00  0.00    -0.352 N 
HETATM    5  O   LIG     1      26.684  26.305  34.849  1.00  0.00    -0.247 OA
HETATM    6  O   LIG     1      27.333  28.391  36.342  1.00  0.00    -0.271 OA
HETATM    7  H   LIG     1      26.653  29.135  33.241  1.00  0.00     0.173 HD
HETATM    8  H   LIG     1      25.999  27.273  31.813  1.00  0.00     0.160 HD
HETATM    9  H   LIG     1      25.942  25.603  32.482  1.00  0.00     0.160 HD
ENDROOT
BRANCH   1  10
HETATM   10  C   LIG     1      27.447  30.613  35.409  1.00  0.00     0.098 C 
HETATM   11 BR   LIG     1      25.887  31.506  36.206  1.00  0.00    -0.075 Br
BRANCH  10  12
HETATM   12  C   LIG     1      28.669  30.837  36.342  1.00  0.00     0.026 C 
HETATM   13  C   LIG     1      28.438  31.833  37.485  1.00  0.00     0.007 C 
ENDBRANCH  10  12
BRANCH  10  14
HETATM   14  C   LIG     1      27.698  31.214  33.998  1.00  0.00     0.026 C 
HETATM   15  C   LIG     1      29.173  31.246  33.585  1.00  0.00     0.007 C 
ENDBRANCH  10  14
ENDBRANCH   1  10
TORSDOF 3
ENDMDL
MODEL 15
REMARK VINA RESULT:      -3.5      4.675      5.937
REMARK  3 active torsions:
REMARK  status: ('A' for Active; 'I' for Inactive)
REMARK    1  A    between atoms: C_2  and  C_3 
REMARK    2  A    between atoms: C_2  and  C_5 
REMARK    3  A    between atoms: C_2  and  C_7 
REMARK       I    between atoms: C_7  and  N_8 
REMARK       I    between atoms: N_8  and  C_9 
REMARK       I    between atoms: C_9  and  N_10 
ROOT
HETATM    1  C   LIG     1      15.481  33.817  18.354  1.00  0.00     0.245 C 
HETATM    2  N   LIG     1      15.574  33.823  19.792  1.00  0.00    -0.278 N 
HETATM    3  C   LIG     1      16.060  34.934  20.561  1.00  0.00     0.320 C 
HETATM    4  N   LIG     1      16.096  34.849  21.985  1.00  0.00    -0.352 N 
HETATM    5  O   LIG     1      16.457  35.988  19.996  1.00  0.00    -0.247 OA
HETATM    6  O   LIG     1      15.825  34.838  17.698  1.00  0.00    -0.271 OA
HETATM    7  H   LIG     1      15.262  32.978  20.318  1.00  0.00     0.173 HD
HETATM    8  H   LIG     1      15.773  33.986  22.475  1.00  0.00     0.160 HD
HETATM    9  H   LIG     1      16.449  35.653  22.552  1.00  0.00     0.160 HD
ENDROOT
BRANCH   1  10
HETATM   10  C   LIG     1      14.965  32.585  17.620  1.00  0.00     0.098 C 
HETATM   11 BR   LIG     1      14.507  31.181  18.918  1.00  0.00    -0.075 Br
BRANCH  10  12
HETATM   12  C   LIG     1      13.673  32.987  16.857  1.00  0.00     0.026 C 
HETATM   13  C   LIG     1      12.625  31.875  16.729  1.00  0.00     0.007 C 
ENDBRANCH  10  12
BRANCH  10  14
HETATM   14  C   LIG     1      16.046  32.032  16.649  1.00  0.00     0.026 C 
HETATM   15  C   LIG     1      15.860  32.471  15.192  1.00  0.00     0.007 C 
ENDBRANCH  10  14
ENDBRANCH   1  10
TORSDOF 3
ENDMDL
MODEL 16
REMARK VINA RESULT:      -3.5     15.394     15.886
REMARK  3 active torsions:
REMARK  status: ('A' for Active; 'I' for Inactive)
REMARK    1  A    between atoms: C_2  and  C_3 
REMARK    2  A    between atoms: C_2  and  C_5 
REMARK    3  A    between atoms: C_2  and  C_7 
REMARK       I    between atoms: C_7  and  N_8 
REMARK       I    between atoms: N_8  and  C_9 
REMARK       I    between atoms: C_9  and  N_10 
ROOT
HETATM    1  C   LIG     1      25.531  23.144  20.734  1.00  0.00     0.245 C 
HETATM    2  N   LIG     1      25.791  24.281  19.887  1.00  0.00    -0.278 N 
HETATM    3  C   LIG     1      26.820  25.250  20.137  1.00  0.00     0.320 C 
HETATM    4  N   LIG     1      27.009  26.334  19.228  1.00  0.00    -0.352 N 
HETATM    5  O   LIG     1      27.562  25.160  21.152  1.00  0.00    -0.247 OA
HETATM    6  O   LIG     1      26.241  22.949  21.758  1.00  0.00    -0.271 OA
HETATM    7  H   LIG     1      25.208  24.412  19.032  1.00  0.00     0.173 HD
HETATM    8  H   LIG     1      26.407  26.430  18.381  1.00  0.00     0.160 HD
HETATM    9  H   LIG     1      27.756  27.044  19.402  1.00  0.00     0.160 HD
ENDROOT
BRANCH   1  10
HETATM   10  C   LIG     1      24.406  22.174  20.397  1.00  0.00     0.098 C 
HETATM   11 BR   LIG     1      22.742  22.755  21.271  1.00  0.00    -0.075 Br
BRANCH  10  12
HETATM   12  C   LIG     1      24.188  22.204  18.859  1.00  0.00     0.026 C 
HETATM   13  C   LIG     1      22.907  21.516  18.373  1.00  0.00     0.007 C 
ENDBRANCH  10  12
BRANCH  10  14
HETATM   14  C   LIG     1      24.752  20.740  20.890  1.00  0.00     0.026 C 
HETATM   15  C   LIG     1      23.662  20.097  21.754  1.00  0.00     0.007 C 
ENDBRANCH  10  14
ENDBRANCH   1  10
TORSDOF 3
ENDMDL
MODEL 17
REMARK VINA RESULT:      -3.5     19.034     19.893
REMARK  3 active torsions:
REMARK  status: ('A' for Active; 'I' for Inactive)
REMARK    1  A    between atoms: C_2  and  C_3 
REMARK    2  A    between atoms: C_2  and  C_5 
REMARK    3  A    between atoms: C_2  and  C_7 
REMARK       I    between atoms: C_7  and  N_8 
REMARK       I    between atoms: N_8  and  C_9 
REMARK       I    between atoms: C_9  and  N_10 
ROOT
HETATM    1  C   LIG     1      20.173  22.004  33.156  1.00  0.00     0.245 C 
HETATM    2  N   LIG     1      20.112  20.835  32.317  1.00  0.00    -0.278 N 
HETATM    3  C   LIG     1      19.523  20.815  31.008  1.00  0.00     0.320 C 
HETATM    4  N   LIG     1      19.526  19.608  30.247  1.00  0.00    -0.352 N 
HETATM    5  O   LIG     1      18.998  21.851  30.518  1.00  0.00    -0.247 OA
HETATM    6  O   LIG     1      19.704  23.099  32.742  1.00  0.00    -0.271 OA
HETATM    7  H   LIG     1      20.527  19.944  32.668  1.00  0.00     0.173 HD
HETATM    8  H   LIG     1      19.953  18.737  30.632  1.00  0.00     0.160 HD
HETATM    9  H   LIG     1      19.099  19.585  29.293  1.00  0.00     0.160 HD
ENDROOT
BRANCH   1  10
HETATM   10  C   LIG     1      20.806  21.928  34.540  1.00  0.00     0.098 C 
HETATM   11 BR   LIG     1      22.258  20.602  34.535  1.00  0.00    -0.075 Br
BRANCH  10  12
HETATM   12  C   LIG     1      21.415  23.320  34.868  1.00  0.00     0.026 C 
HETATM   13  C   LIG     1      20.975  23.919  36.209  1.00  0.00     0.007 C 
ENDBRANCH  10  12
BRANCH  10  14
HETATM   14  C   LIG     1      19.753  21.509  35.603  1.00  0.00     0.026 C 
HETATM   15  C   LIG     1      20.158  20.286  36.435  1.00  0.00     0.007 C 
ENDBRANCH  10  14
ENDBRANCH   1  10
TORSDOF 3
ENDMDL
MODEL 18
REMARK VINA RESULT:      -3.4     18.967     19.764
REMARK  3 active torsions:
REMARK  status: ('A' for Active; 'I' for Inactive)
REMARK    1  A    between atoms: C_2  and  C_3 
REMARK    2  A    between atoms: C_2  and  C_5 
REMARK    3  A    between atoms: C_2  and  C_7 
REMARK       I    between atoms: C_7  and  N_8 
REMARK       I    between atoms: N_8  and  C_9 
REMARK       I    between atoms: C_9  and  N_10 
ROOT
HETATM    1  C   LIG     1      20.284  22.022  33.056  1.00  0.00     0.245 C 
HETATM    2  N   LIG     1      20.194  20.857  32.213  1.00  0.00    -0.278 N 
HETATM    3  C   LIG     1      19.502  20.827  30.955  1.00  0.00     0.320 C 
HETATM    4  N   LIG     1      19.484  19.627  30.184  1.00  0.00    -0.352 N 
HETATM    5  O   LIG     1      18.906  21.849  30.520  1.00  0.00    -0.247 OA
HETATM    6  O   LIG     1      19.747  23.104  32.692  1.00  0.00    -0.271 OA
HETATM    7  H   LIG     1      20.665  19.979  32.520  1.00  0.00     0.173 HD
HETATM    8  H   LIG     1      19.970  18.768  30.524  1.00  0.00     0.160 HD
HETATM    9  H   LIG     1      18.983  19.596  29.268  1.00  0.00     0.160 HD
ENDROOT
BRANCH   1  10
HETATM   10  C   LIG     1      21.029  21.957  34.384  1.00  0.00     0.098 C 
HETATM   11 BR   LIG     1      19.850  21.215  35.772  1.00  0.00    -0.075 Br
BRANCH  10  12
HETATM   12  C   LIG     1      22.241  21.001  34.209  1.00  0.00     0.026 C 
HETATM   13  C   LIG     1      23.510  21.419  34.962  1.00  0.00     0.007 C 
ENDBRANCH  10  12
BRANCH  10  14
HETATM   14  C   LIG     1      21.488  23.374  34.827  1.00  0.00     0.026 C 
HETATM   15  C   LIG     1      20.879  23.842  36.153  1.00  0.00     0.007 C 
ENDBRANCH  10  14
ENDBRANCH   1  10
TORSDOF 3
ENDMDL
MODEL 19
REMARK VINA RESULT:      -3.3     17.632     18.841
REMARK  3 active torsions:
REMARK  status: ('A' for Active; 'I' for Inactive)
REMARK    1  A    between atoms: C_2  and  C_3 
REMARK    2  A    between atoms: C_2  and  C_5 
REMARK    3  A    between atoms: C_2  and  C_7 
REMARK       I    between atoms: C_7  and  N_8 
REMARK       I    between atoms: N_8  and  C_9 
REMARK       I    between atoms: C_9  and  N_10 
ROOT
HETATM    1  C   LIG     1      27.135  29.511  34.725  1.00  0.00     0.245 C 
HETATM    2  N   LIG     1      26.549  29.309  36.026  1.00  0.00    -0.278 N 
HETATM    3  C   LIG     1      26.061  30.371  36.861  1.00  0.00     0.320 C 
HETATM    4  N   LIG     1      25.481  30.066  38.129  1.00  0.00    -0.352 N 
HETATM    5  O   LIG     1      26.139  31.573  36.492  1.00  0.00    -0.247 OA
HETATM    6  O   LIG     1      27.227  30.677  34.253  1.00  0.00    -0.271 OA
HETATM    7  H   LIG     1      26.459  28.336  36.389  1.00  0.00     0.173 HD
HETATM    8  H   LIG     1      25.407  29.078  38.457  1.00  0.00     0.160 HD
HETATM    9  H   LIG     1      25.124  30.832  38.743  1.00  0.00     0.160 HD
ENDROOT
BRANCH   1  10
HETATM   10  C   LIG     1      27.639  28.324  33.914  1.00  0.00     0.098 C 
HETATM   11 BR   LIG     1      28.980  28.931  32.610  1.00  0.00    -0.075 Br
BRANCH  10  12
HETATM   12  C   LIG     1      28.322  27.329  34.892  1.00  0.00     0.026 C 
HETATM   13  C   LIG     1      29.598  26.668  34.357  1.00  0.00     0.007 C 
ENDBRANCH  10  12
BRANCH  10  14
HETATM   14  C   LIG     1      26.469  27.647  33.146  1.00  0.00     0.026 C 
HETATM   15  C   LIG     1      26.807  27.271  31.699  1.00  0.00     0.007 C 
ENDBRANCH  10  14
ENDBRANCH   1  10
TORSDOF 3
ENDMDL
MODEL 20
REMARK VINA RESULT:      -3.3     18.231     19.246
REMARK  3 active torsions:
REMARK  status: ('A' for Active; 'I' for Inactive)
REMARK    1  A    between atoms: C_2  and  C_3 
REMARK    2  A    between atoms: C_2  and  C_5 
REMARK    3  A    between atoms: C_2  and  C_7 
REMARK       I    between atoms: C_7  and  N_8 
REMARK       I    between atoms: N_8  and  C_9 
REMARK       I    between atoms: C_9  and  N_10 
ROOT
HETATM    1  C   LIG     1      26.912  29.007  35.039  1.00  0.00     0.245 C 
HETATM    2  N   LIG     1      27.398  27.941  35.877  1.00  0.00    -0.278 N 
HETATM    3  C   LIG     1      27.165  26.547  35.620  1.00  0.00     0.320 C 
HETATM    4  N   LIG     1      27.703  25.564  36.503  1.00  0.00    -0.352 N 
HETATM    5  O   LIG     1      26.488  26.177  34.623  1.00  0.00    -0.247 OA
HETATM    6  O   LIG     1      26.251  28.737  33.999  1.00  0.00    -0.271 OA
HETATM    7  H   LIG     1      27.963  28.183  36.719  1.00  0.00     0.173 HD
HETATM    8  H   LIG     1      28.266  25.846  37.335  1.00  0.00     0.160 HD
HETATM    9  H   LIG     1      27.538  24.548  36.323  1.00  0.00     0.160 HD
ENDROOT
BRANCH   1  10
HETATM   10  C   LIG     1      27.197  30.460  35.398  1.00  0.00     0.098 C 
HETATM   11 BR   LIG     1      28.712  30.552  36.648  1.00  0.00    -0.075 Br
BRANCH  10  12
HETATM   12  C   LIG     1      27.590  31.210  34.095  1.00  0.00     0.026 C 
HETATM   13  C   LIG     1      29.060  31.066  33.684  1.00  0.00     0.007 C 
ENDBRANCH  10  12
BRANCH  10  14
HETATM   14  C   LIG     1      25.957  31.112  36.072  1.00  0.00     0.026 C 
HETATM   15  C   LIG     1      26.199  31.575  37.512  1.00  0.00     0.007 C 
ENDBRANCH  10  14
ENDBRANCH   1  10
TORSDOF 3
ENDMDL
