REMARK  3 active torsions:
REMARK  status: ('A' for Active; 'I' for Inactive)
REMARK    1  A    between atoms: C_2  and  C_3 
REMARK    2  A    between atoms: C_2  and  C_5 
REMARK    3  A    between atoms: C_2  and  C_7 
REMARK       I    between atoms: C_7  and  N_8 
REMARK       I    between atoms: N_8  and  C_9 
REMARK       I    between atoms: C_9  and  N_10 
ROOT
HETATM    1  C   LIG     1       0.645  -0.121  -1.060  1.00  0.00     0.245 C 
HETATM    2  N   LIG     1       1.637   0.149  -0.051  1.00  0.00    -0.278 N 
HETATM    3  C   LIG     1       3.027   0.376  -0.331  1.00  0.00     0.320 C 
HETATM    4  N   LIG     1       3.930   0.653   0.739  1.00  0.00    -0.352 N 
HETATM    5  O   LIG     1       3.465   0.333  -1.512  1.00  0.00    -0.247 OA
HETATM    6  O   LIG     1       0.979  -0.153  -2.276  1.00  0.00    -0.271 OA
HETATM    7  H   LIG     1       1.337   0.195   0.947  1.00  0.00     0.173 HD
HETATM    8  H   LIG     1       3.591   0.693   1.725  1.00  0.00     0.160 HD
HETATM    9  H   LIG     1       4.943   0.819   0.544  1.00  0.00     0.160 HD
ENDROOT
BRANCH   1  10
HETATM   10  C   LIG     1      -0.807  -0.364  -0.668  1.00  0.00     0.098 C 
HETATM   11 BR   LIG     1      -1.899  -0.618  -2.284  1.00  0.00    -0.075 Br
BRANCH  10  12
HETATM   12  C   LIG     1      -0.866  -1.669   0.173  1.00  0.00     0.026 C 
HETATM   13  C   LIG     1      -2.259  -2.040   0.696  1.00  0.00     0.007 C 
ENDBRANCH  10  12
BRANCH  10  14
HETATM   14  C   LIG     1      -1.371   0.846   0.128  1.00  0.00     0.026 C 
HETATM   15  C   LIG     1      -1.155   2.200  -0.557  1.00  0.00     0.007 C 
ENDBRANCH  10  14
ENDBRANCH   1  10
TORSDOF 3
