REMARK  3 active torsions:
REMARK  status: ('A' for Active; 'I' for Inactive)
REMARK    1  A    between atoms: C_2  and  C_6 
REMARK    2  A    between atoms: C_2  and  C_3 
REMARK    3  A    between atoms: C_2  and  O_5 
ROOT
HETATM    1  C   LIG     1      -0.801   1.728   0.364  1.00  0.00     0.045 C 
HETATM    2  C   LIG     1       0.038   0.647  -0.351  1.00  0.00     0.053 C 
ENDROOT
BRANCH   2   3
HETATM    3  C   LIG     1       1.152   0.166   0.618  1.00  0.00     0.033 C 
HETATM    4  C   LIG     1       2.085  -0.888   0.015  1.00  0.00     0.008 C 
ENDBRANCH   2   3
BRANCH   2   5
HETATM    5  C   LIG     1      -0.875  -0.518  -0.845  1.00  0.00     0.033 C 
HETATM    6  C   LIG     1      -1.542  -1.339   0.263  1.00  0.00     0.008 C 
ENDBRANCH   2   5
BRANCH   2   7
HETATM    7  O   LIG     1       0.667   1.235  -1.467  1.00  0.00    -0.390 OA
HETATM    8  H   LIG     1      -0.039   1.577  -2.077  1.00  0.00     0.210 HD
ENDBRANCH   2   7
TORSDOF 3
