MODEL 1
REMARK VINA RESULT:      -4.7      0.000      0.000
REMARK  3 active torsions:
REMARK  status: ('A' for Active; 'I' for Inactive)
REMARK    1  A    between atoms: C_2  and  C_6 
REMARK    2  A    between atoms: C_2  and  C_3 
REMARK    3  A    between atoms: C_2  and  O_5 
ROOT
HETATM    1  C   LIG     1      17.355  38.688  22.636  1.00  0.00     0.045 C 
HETATM    2  C   LIG     1      16.716  37.788  23.715  1.00  0.00     0.053 C 
ENDROOT
BRANCH   2   3
HETATM    3  C   LIG     1      16.916  36.304  23.302  1.00  0.00     0.033 C 
HETATM    4  C   LIG     1      17.017  36.091  21.789  1.00  0.00     0.008 C 
ENDBRANCH   2   3
BRANCH   2   5
HETATM    5  C   LIG     1      17.314  38.108  25.121  1.00  0.00     0.033 C 
HETATM    6  C   LIG     1      18.117  36.972  25.762  1.00  0.00     0.008 C 
ENDBRANCH   2   5
BRANCH   2   7
HETATM    7  O   LIG     1      15.329  38.040  23.744  1.00  0.00    -0.390 OA
HETATM    8  H   LIG     1      15.192  38.996  23.978  1.00  0.00     0.210 HD
ENDBRANCH   2   7
TORSDOF 3
ENDMDL
MODEL 2
REMARK VINA RESULT:      -4.7      0.627      2.730
REMARK  3 active torsions:
REMARK  status: ('A' for Active; 'I' for Inactive)
REMARK    1  A    between atoms: C_2  and  C_6 
REMARK    2  A    between atoms: C_2  and  C_3 
REMARK    3  A    between atoms: C_2  and  O_5 
ROOT
HETATM    1  C   LIG     1      16.843  36.457  22.936  1.00  0.00     0.045 C 
HETATM    2  C   LIG     1      16.582  37.849  23.551  1.00  0.00     0.053 C 
ENDROOT
BRANCH   2   3
HETATM    3  C   LIG     1      17.156  37.867  24.994  1.00  0.00     0.033 C 
HETATM    4  C   LIG     1      17.721  36.519  25.452  1.00  0.00     0.008 C 
ENDBRANCH   2   3
BRANCH   2   5
HETATM    5  C   LIG     1      17.186  38.969  22.648  1.00  0.00     0.033 C 
HETATM    6  C   LIG     1      18.070  38.475  21.499  1.00  0.00     0.008 C 
ENDBRANCH   2   5
BRANCH   2   7
HETATM    7  O   LIG     1      15.189  38.042  23.643  1.00  0.00    -0.390 OA
HETATM    8  H   LIG     1      14.919  38.698  22.947  1.00  0.00     0.210 HD
ENDBRANCH   2   7
TORSDOF 3
ENDMDL
MODEL 3
REMARK VINA RESULT:      -4.7      0.955      2.569
REMARK  3 active torsions:
REMARK  status: ('A' for Active; 'I' for Inactive)
REMARK    1  A    between atoms: C_2  and  C_6 
REMARK    2  A    between atoms: C_2  and  C_3 
REMARK    3  A    between atoms: C_2  and  O_5 
ROOT
HETATM    1  C   LIG     1      17.036  37.382  24.592  1.00  0.00     0.045 C 
HETATM    2  C   LIG     1      16.374  37.755  23.248  1.00  0.00     0.053 C 
ENDROOT
BRANCH   2   3
HETATM    3  C   LIG     1      17.078  39.021  22.686  1.00  0.00     0.033 C 
HETATM    4  C   LIG     1      17.998  38.740  21.494  1.00  0.00     0.008 C 
ENDBRANCH   2   3
BRANCH   2   5
HETATM    5  C   LIG     1      16.423  36.550  22.259  1.00  0.00     0.033 C 
HETATM    6  C   LIG     1      16.973  35.246  22.846  1.00  0.00     0.008 C 
ENDBRANCH   2   5
BRANCH   2   7
HETATM    7  O   LIG     1      15.026  38.089  23.491  1.00  0.00    -0.390 OA
HETATM    8  H   LIG     1      14.947  39.079  23.492  1.00  0.00     0.210 HD
ENDBRANCH   2   7
TORSDOF 3
ENDMDL
MODEL 4
REMARK VINA RESULT:      -4.5      4.573      5.586
REMARK  3 active torsions:
REMARK  status: ('A' for Active; 'I' for Inactive)
REMARK    1  A    between atoms: C_2  and  C_6 
REMARK    2  A    between atoms: C_2  and  C_3 
REMARK    3  A    between atoms: C_2  and  O_5 
ROOT
HETATM    1  C   LIG     1      19.434  37.374  19.400  1.00  0.00     0.045 C 
HETATM    2  C   LIG     1      19.405  38.918  19.385  1.00  0.00     0.053 C 
ENDROOT
BRANCH   2   3
HETATM    3  C   LIG     1      18.429  39.382  18.270  1.00  0.00     0.033 C 
HETATM    4  C   LIG     1      19.086  39.529  16.894  1.00  0.00     0.008 C 
ENDBRANCH   2   3
BRANCH   2   5
HETATM    5  C   LIG     1      19.020  39.473  20.792  1.00  0.00     0.033 C 
HETATM    6  C   LIG     1      17.874  38.737  21.493  1.00  0.00     0.008 C 
ENDBRANCH   2   5
BRANCH   2   7
HETATM    7  O   LIG     1      20.692  39.385  19.049  1.00  0.00    -0.390 OA
HETATM    8  H   LIG     1      20.590  40.178  18.459  1.00  0.00     0.210 HD
ENDBRANCH   2   7
TORSDOF 3
ENDMDL
MODEL 5
REMARK VINA RESULT:      -4.4      1.561      2.018
REMARK  3 active torsions:
REMARK  status: ('A' for Active; 'I' for Inactive)
REMARK    1  A    between atoms: C_2  and  C_6 
REMARK    2  A    between atoms: C_2  and  C_3 
REMARK    3  A    between atoms: C_2  and  O_5 
ROOT
HETATM    1  C   LIG     1      18.831  38.257  24.206  1.00  0.00     0.045 C 
HETATM    2  C   LIG     1      17.645  37.772  25.068  1.00  0.00     0.053 C 
ENDROOT
BRANCH   2   3
HETATM    3  C   LIG     1      16.485  37.356  24.122  1.00  0.00     0.033 C 
HETATM    4  C   LIG     1      16.727  37.712  22.653  1.00  0.00     0.008 C 
ENDBRANCH   2   3
BRANCH   2   5
HETATM    5  C   LIG     1      18.093  36.616  26.015  1.00  0.00     0.033 C 
HETATM    6  C   LIG     1      17.583  35.223  25.632  1.00  0.00     0.008 C 
ENDBRANCH   2   5
BRANCH   2   7
HETATM    7  O   LIG     1      17.191  38.851  25.852  1.00  0.00    -0.390 OA
HETATM    8  H   LIG     1      17.522  39.694  25.442  1.00  0.00     0.210 HD
ENDBRANCH   2   7
TORSDOF 3
ENDMDL
MODEL 6
REMARK VINA RESULT:      -4.0      1.658      2.676
REMARK  3 active torsions:
REMARK  status: ('A' for Active; 'I' for Inactive)
REMARK    1  A    between atoms: C_2  and  C_6 
REMARK    2  A    between atoms: C_2  and  C_3 
REMARK    3  A    between atoms: C_2  and  O_5 
ROOT
HETATM    1  C   LIG     1      17.536  36.344  20.824  1.00  0.00     0.045 C 
HETATM    2  C   LIG     1      16.762  36.362  22.160  1.00  0.00     0.053 C 
ENDROOT
BRANCH   2   3
HETATM    3  C   LIG     1      16.989  35.005  22.880  1.00  0.00     0.033 C 
HETATM    4  C   LIG     1      17.219  35.135  24.388  1.00  0.00     0.008 C 
ENDBRANCH   2   3
BRANCH   2   5
HETATM    5  C   LIG     1      17.195  37.584  23.028  1.00  0.00     0.033 C 
HETATM    6  C   LIG     1      17.143  38.940  22.318  1.00  0.00     0.008 C 
ENDBRANCH   2   5
BRANCH   2   7
HETATM    7  O   LIG     1      15.386  36.471  21.877  1.00  0.00    -0.390 OA
HETATM    8  H   LIG     1      15.276  37.077  21.098  1.00  0.00     0.210 HD
ENDBRANCH   2   7
TORSDOF 3
ENDMDL
MODEL 7
REMARK VINA RESULT:      -4.0      7.517      8.701
REMARK  3 active torsions:
REMARK  status: ('A' for Active; 'I' for Inactive)
REMARK    1  A    between atoms: C_2  and  C_6 
REMARK    2  A    between atoms: C_2  and  C_3 
REMARK    3  A    between atoms: C_2  and  O_5 
ROOT
HETATM    1  C   LIG     1      15.722  32.484  16.125  1.00  0.00     0.045 C 
HETATM    2  C   LIG     1      14.635  32.548  17.220  1.00  0.00     0.053 C 
ENDROOT
BRANCH   2   3
HETATM    3  C   LIG     1      13.684  31.333  17.044  1.00  0.00     0.033 C 
HETATM    4  C   LIG     1      13.767  30.677  15.662  1.00  0.00     0.008 C 
ENDBRANCH   2   3
BRANCH   2   5
HETATM    5  C   LIG     1      15.287  32.601  18.637  1.00  0.00     0.033 C 
HETATM    6  C   LIG     1      14.801  31.532  19.620  1.00  0.00     0.008 C 
ENDBRANCH   2   5
BRANCH   2   7
HETATM    7  O   LIG     1      13.874  33.718  17.027  1.00  0.00    -0.390 OA
HETATM    8  H   LIG     1      14.484  34.437  16.714  1.00  0.00     0.210 HD
ENDBRANCH   2   7
TORSDOF 3
ENDMDL
MODEL 8
REMARK VINA RESULT:      -4.0      1.584      2.237
REMARK  3 active torsions:
REMARK  status: ('A' for Active; 'I' for Inactive)
REMARK    1  A    between atoms: C_2  and  C_6 
REMARK    2  A    between atoms: C_2  and  C_3 
REMARK    3  A    between atoms: C_2  and  O_5 
ROOT
HETATM    1  C   LIG     1      15.454  37.807  22.733  1.00  0.00     0.045 C 
HETATM    2  C   LIG     1      16.946  37.456  22.922  1.00  0.00     0.053 C 
ENDROOT
BRANCH   2   3
HETATM    3  C   LIG     1      17.790  38.730  22.649  1.00  0.00     0.033 C 
HETATM    4  C   LIG     1      18.231  38.881  21.191  1.00  0.00     0.008 C 
ENDBRANCH   2   3
BRANCH   2   5
HETATM    5  C   LIG     1      17.193  36.862  24.343  1.00  0.00     0.033 C 
HETATM    6  C   LIG     1      17.384  37.895  25.458  1.00  0.00     0.008 C 
ENDBRANCH   2   5
BRANCH   2   7
HETATM    7  O   LIG     1      17.304  36.492  21.958  1.00  0.00    -0.390 OA
HETATM    8  H   LIG     1      18.052  36.858  21.416  1.00  0.00     0.210 HD
ENDBRANCH   2   7
TORSDOF 3
ENDMDL
MODEL 9
REMARK VINA RESULT:      -4.0      1.983      2.619
REMARK  3 active torsions:
REMARK  status: ('A' for Active; 'I' for Inactive)
REMARK    1  A    between atoms: C_2  and  C_6 
REMARK    2  A    between atoms: C_2  and  C_3 
REMARK    3  A    between atoms: C_2  and  O_5 
ROOT
HETATM    1  C   LIG     1      15.508  37.734  22.804  1.00  0.00     0.045 C 
HETATM    2  C   LIG     1      16.958  37.205  22.768  1.00  0.00     0.053 C 
ENDROOT
BRANCH   2   3
HETATM    3  C   LIG     1      16.919  35.653  22.809  1.00  0.00     0.033 C 
HETATM    4  C   LIG     1      16.623  35.005  21.454  1.00  0.00     0.008 C 
ENDBRANCH   2   3
BRANCH   2   5
HETATM    5  C   LIG     1      17.711  37.756  21.518  1.00  0.00     0.033 C 
HETATM    6  C   LIG     1      18.296  39.163  21.676  1.00  0.00     0.008 C 
ENDBRANCH   2   5
BRANCH   2   7
HETATM    7  O   LIG     1      17.623  37.647  23.930  1.00  0.00    -0.390 OA
HETATM    8  H   LIG     1      18.542  37.268  23.925  1.00  0.00     0.210 HD
ENDBRANCH   2   7
TORSDOF 3
ENDMDL
MODEL 10
REMARK VINA RESULT:      -3.8      7.483      9.002
REMARK  3 active torsions:
REMARK  status: ('A' for Active; 'I' for Inactive)
REMARK    1  A    between atoms: C_2  and  C_6 
REMARK    2  A    between atoms: C_2  and  C_3 
REMARK    3  A    between atoms: C_2  and  O_5 
ROOT
HETATM    1  C   LIG     1      13.490  31.828  17.041  1.00  0.00     0.045 C 
HETATM    2  C   LIG     1      14.663  32.826  17.136  1.00  0.00     0.053 C 
ENDROOT
BRANCH   2   3
HETATM    3  C   LIG     1      15.317  32.687  18.537  1.00  0.00     0.033 C 
HETATM    4  C   LIG     1      14.719  31.566  19.391  1.00  0.00     0.008 C 
ENDBRANCH   2   3
BRANCH   2   5
HETATM    5  C   LIG     1      15.677  32.594  15.972  1.00  0.00     0.033 C 
HETATM    6  C   LIG     1      15.337  31.433  15.033  1.00  0.00     0.008 C 
ENDBRANCH   2   5
BRANCH   2   7
HETATM    7  O   LIG     1      14.147  34.134  17.033  1.00  0.00    -0.390 OA
HETATM    8  H   LIG     1      14.372  34.487  16.132  1.00  0.00     0.210 HD
ENDBRANCH   2   7
TORSDOF 3
ENDMDL
MODEL 11
REMARK VINA RESULT:      -3.8      7.860      9.342
REMARK  3 active torsions:
REMARK  status: ('A' for Active; 'I' for Inactive)
REMARK    1  A    between atoms: C_2  and  C_6 
REMARK    2  A    between atoms: C_2  and  C_3 
REMARK    3  A    between atoms: C_2  and  O_5 
ROOT
HETATM    1  C   LIG     1      14.949  32.252  18.472  1.00  0.00     0.045 C 
HETATM    2  C   LIG     1      14.407  32.592  17.067  1.00  0.00     0.053 C 
ENDROOT
BRANCH   2   3
HETATM    3  C   LIG     1      15.442  32.118  16.011  1.00  0.00     0.033 C 
HETATM    4  C   LIG     1      16.373  33.228  15.513  1.00  0.00     0.008 C 
ENDBRANCH   2   3
BRANCH   2   5
HETATM    5  C   LIG     1      12.997  31.960  16.855  1.00  0.00     0.033 C 
HETATM    6  C   LIG     1      12.979  30.665  16.036  1.00  0.00     0.008 C 
ENDBRANCH   2   5
BRANCH   2   7
HETATM    7  O   LIG     1      14.297  33.993  16.958  1.00  0.00    -0.390 OA
HETATM    8  H   LIG     1      13.899  34.206  16.072  1.00  0.00     0.210 HD
ENDBRANCH   2   7
TORSDOF 3
ENDMDL
MODEL 12
REMARK VINA RESULT:      -3.6      8.109      9.294
REMARK  3 active torsions:
REMARK  status: ('A' for Active; 'I' for Inactive)
REMARK    1  A    between atoms: C_2  and  C_6 
REMARK    2  A    between atoms: C_2  and  C_3 
REMARK    3  A    between atoms: C_2  and  O_5 
ROOT
HETATM    1  C   LIG     1      14.854  34.208  16.851  1.00  0.00     0.045 C 
HETATM    2  C   LIG     1      14.961  32.668  16.857  1.00  0.00     0.053 C 
ENDROOT
BRANCH   2   3
HETATM    3  C   LIG     1      13.542  32.075  17.071  1.00  0.00     0.033 C 
HETATM    4  C   LIG     1      13.244  30.852  16.199  1.00  0.00     0.008 C 
ENDBRANCH   2   3
BRANCH   2   5
HETATM    5  C   LIG     1      15.635  32.160  15.545  1.00  0.00     0.033 C 
HETATM    6  C   LIG     1      16.922  32.890  15.147  1.00  0.00     0.008 C 
ENDBRANCH   2   5
BRANCH   2   7
HETATM    7  O   LIG     1      15.756  32.280  17.955  1.00  0.00    -0.390 OA
HETATM    8  H   LIG     1      16.629  31.956  17.607  1.00  0.00     0.210 HD
ENDBRANCH   2   7
TORSDOF 3
ENDMDL
MODEL 13
REMARK VINA RESULT:      -3.6      8.398     10.008
REMARK  3 active torsions:
REMARK  status: ('A' for Active; 'I' for Inactive)
REMARK    1  A    between atoms: C_2  and  C_6 
REMARK    2  A    between atoms: C_2  and  C_3 
REMARK    3  A    between atoms: C_2  and  O_5 
ROOT
HETATM    1  C   LIG     1      12.502  32.386  16.632  1.00  0.00     0.045 C 
HETATM    2  C   LIG     1      13.750  31.477  16.593  1.00  0.00     0.053 C 
ENDROOT
BRANCH   2   3
HETATM    3  C   LIG     1      13.544  30.404  15.489  1.00  0.00     0.033 C 
HETATM    4  C   LIG     1      14.719  30.285  14.514  1.00  0.00     0.008 C 
ENDBRANCH   2   3
BRANCH   2   5
HETATM    5  C   LIG     1      15.040  32.326  16.375  1.00  0.00     0.033 C 
HETATM    6  C   LIG     1      14.971  33.765  16.896  1.00  0.00     0.008 C 
ENDBRANCH   2   5
BRANCH   2   7
HETATM    7  O   LIG     1      13.852  30.805  17.828  1.00  0.00    -0.390 OA
HETATM    8  H   LIG     1      14.637  31.171  18.316  1.00  0.00     0.210 HD
ENDBRANCH   2   7
TORSDOF 3
ENDMDL
MODEL 14
REMARK VINA RESULT:      -3.5     16.853     17.729
REMARK  3 active torsions:
REMARK  status: ('A' for Active; 'I' for Inactive)
REMARK    1  A    between atoms: C_2  and  C_6 
REMARK    2  A    between atoms: C_2  and  C_3 
REMARK    3  A    between atoms: C_2  and  O_5 
ROOT
HETATM    1  C   LIG     1       4.604  39.165  37.254  1.00  0.00     0.045 C 
HETATM    2  C   LIG     1       4.654  40.084  36.015  1.00  0.00     0.053 C 
ENDROOT
BRANCH   2   3
HETATM    3  C   LIG     1       4.510  39.205  34.743  1.00  0.00     0.033 C 
HETATM    4  C   LIG     1       3.763  39.893  33.596  1.00  0.00     0.008 C 
ENDBRANCH   2   3
BRANCH   2   5
HETATM    5  C   LIG     1       3.559  41.192  36.109  1.00  0.00     0.033 C 
HETATM    6  C   LIG     1       4.078  42.631  36.023  1.00  0.00     0.008 C 
ENDBRANCH   2   5
BRANCH   2   7
HETATM    7  O   LIG     1       5.921  40.701  35.966  1.00  0.00    -0.390 OA
HETATM    8  H   LIG     1       6.599  40.003  35.767  1.00  0.00     0.210 HD
ENDBRANCH   2   7
TORSDOF 3
ENDMDL
MODEL 15
REMARK VINA RESULT:      -3.3      9.298     10.568
REMARK  3 active torsions:
REMARK  status: ('A' for Active; 'I' for Inactive)
REMARK    1  A    between atoms: C_2  and  C_6 
REMARK    2  A    between atoms: C_2  and  C_3 
REMARK    3  A    between atoms: C_2  and  O_5 
ROOT
HETATM    1  C   LIG     1      15.672  33.136  16.012  1.00  0.00     0.045 C 
HETATM    2  C   LIG     1      16.756  32.793  14.967  1.00  0.00     0.053 C 
ENDROOT
BRANCH   2   3
HETATM    3  C   LIG     1      16.073  32.098  13.758  1.00  0.00     0.033 C 
HETATM    4  C   LIG     1      15.370  30.785  14.114  1.00  0.00     0.008 C 
ENDBRANCH   2   3
BRANCH   2   5
HETATM    5  C   LIG     1      17.549  34.073  14.558  1.00  0.00     0.033 C 
HETATM    6  C   LIG     1      18.403  33.935  13.294  1.00  0.00     0.008 C 
ENDBRANCH   2   5
BRANCH   2   7
HETATM    7  O   LIG     1      17.652  31.868  15.540  1.00  0.00    -0.390 OA
HETATM    8  H   LIG     1      18.479  32.356  15.797  1.00  0.00     0.210 HD
ENDBRANCH   2   7
TORSDOF 3
ENDMDL
MODEL 16
REMARK VINA RESULT:      -3.3     16.597     17.899
REMARK  3 active torsions:
REMARK  status: ('A' for Active; 'I' for Inactive)
REMARK    1  A    between atoms: C_2  and  C_6 
REMARK    2  A    between atoms: C_2  and  C_3 
REMARK    3  A    between atoms: C_2  and  O_5 
ROOT
HETATM    1  C   LIG     1      27.528  29.819  37.295  1.00  0.00     0.045 C 
HETATM    2  C   LIG     1      26.250  30.683  37.232  1.00  0.00     0.053 C 
ENDROOT
BRANCH   2   3
HETATM    3  C   LIG     1      26.458  31.938  38.122  1.00  0.00     0.033 C 
HETATM    4  C   LIG     1      27.891  32.477  38.108  1.00  0.00     0.008 C 
ENDBRANCH   2   3
BRANCH   2   5
HETATM    5  C   LIG     1      25.905  31.044  35.753  1.00  0.00     0.033 C 
HETATM    6  C   LIG     1      27.061  30.900  34.759  1.00  0.00     0.008 C 
ENDBRANCH   2   5
BRANCH   2   7
HETATM    7  O   LIG     1      25.183  29.943  37.779  1.00  0.00    -0.390 OA
HETATM    8  H   LIG     1      24.407  30.553  37.891  1.00  0.00     0.210 HD
ENDBRANCH   2   7
TORSDOF 3
ENDMDL
MODEL 17
REMARK VINA RESULT:      -3.3     16.680     17.597
REMARK  3 active torsions:
REMARK  status: ('A' for Active; 'I' for Inactive)
REMARK    1  A    between atoms: C_2  and  C_6 
REMARK    2  A    between atoms: C_2  and  C_3 
REMARK    3  A    between atoms: C_2  and  O_5 
ROOT
HETATM    1  C   LIG     1       3.184  41.197  36.207  1.00  0.00     0.045 C 
HETATM    2  C   LIG     1       4.317  40.808  35.233  1.00  0.00     0.053 C 
ENDROOT
BRANCH   2   3
HETATM    3  C   LIG     1       4.503  39.267  35.283  1.00  0.00     0.033 C 
HETATM    4  C   LIG     1       4.277  38.661  36.671  1.00  0.00     0.008 C 
ENDBRANCH   2   3
BRANCH   2   5
HETATM    5  C   LIG     1       4.008  41.331  33.795  1.00  0.00     0.033 C 
HETATM    6  C   LIG     1       3.588  40.258  32.786  1.00  0.00     0.008 C 
ENDBRANCH   2   5
BRANCH   2   7
HETATM    7  O   LIG     1       5.516  41.398  35.682  1.00  0.00    -0.390 OA
HETATM    8  H   LIG     1       6.019  41.723  34.889  1.00  0.00     0.210 HD
ENDBRANCH   2   7
TORSDOF 3
ENDMDL
MODEL 18
REMARK VINA RESULT:      -3.2     17.704     18.920
REMARK  3 active torsions:
REMARK  status: ('A' for Active; 'I' for Inactive)
REMARK    1  A    between atoms: C_2  and  C_6 
REMARK    2  A    between atoms: C_2  and  C_3 
REMARK    3  A    between atoms: C_2  and  O_5 
ROOT
HETATM    1  C   LIG     1      21.124  22.067  36.458  1.00  0.00     0.045 C 
HETATM    2  C   LIG     1      20.823  23.262  35.527  1.00  0.00     0.053 C 
ENDROOT
BRANCH   2   3
HETATM    3  C   LIG     1      22.082  23.542  34.662  1.00  0.00     0.033 C 
HETATM    4  C   LIG     1      23.404  23.355  35.412  1.00  0.00     0.008 C 
ENDBRANCH   2   3
BRANCH   2   5
HETATM    5  C   LIG     1      19.552  22.981  34.668  1.00  0.00     0.033 C 
HETATM    6  C   LIG     1      19.773  22.994  33.152  1.00  0.00     0.008 C 
ENDBRANCH   2   5
BRANCH   2   7
HETATM    7  O   LIG     1      20.590  24.401  36.323  1.00  0.00    -0.390 OA
HETATM    8  H   LIG     1      20.426  24.100  37.256  1.00  0.00     0.210 HD
ENDBRANCH   2   7
TORSDOF 3
ENDMDL
MODEL 19
REMARK VINA RESULT:      -3.1     16.518     17.582
REMARK  3 active torsions:
REMARK  status: ('A' for Active; 'I' for Inactive)
REMARK    1  A    between atoms: C_2  and  C_6 
REMARK    2  A    between atoms: C_2  and  C_3 
REMARK    3  A    between atoms: C_2  and  O_5 
ROOT
HETATM    1  C   LIG     1      25.761  31.350  35.844  1.00  0.00     0.045 C 
HETATM    2  C   LIG     1      26.329  30.337  36.862  1.00  0.00     0.053 C 
ENDROOT
BRANCH   2   3
HETATM    3  C   LIG     1      26.809  29.078  36.090  1.00  0.00     0.033 C 
HETATM    4  C   LIG     1      26.648  29.184  34.571  1.00  0.00     0.008 C 
ENDBRANCH   2   3
BRANCH   2   5
HETATM    5  C   LIG     1      27.463  30.991  37.712  1.00  0.00     0.033 C 
HETATM    6  C   LIG     1      27.276  32.481  38.012  1.00  0.00     0.008 C 
ENDBRANCH   2   5
BRANCH   2   7
HETATM    7  O   LIG     1      25.288  29.939  37.724  1.00  0.00    -0.390 OA
HETATM    8  H   LIG     1      25.226  28.947  37.699  1.00  0.00     0.210 HD
ENDBRANCH   2   7
TORSDOF 3
ENDMDL
MODEL 20
REMARK VINA RESULT:      -3.0     16.692     17.912
REMARK  3 active torsions:
REMARK  status: ('A' for Active; 'I' for Inactive)
REMARK    1  A    between atoms: C_2  and  C_6 
REMARK    2  A    between atoms: C_2  and  C_3 
REMARK    3  A    between atoms: C_2  and  O_5 
ROOT
HETATM    1  C   LIG     1      26.626  31.854  37.864  1.00  0.00     0.045 C 
HETATM    2  C   LIG     1      26.322  30.475  37.238  1.00  0.00     0.053 C 
ENDROOT
BRANCH   2   3
HETATM    3  C   LIG     1      25.953  30.682  35.744  1.00  0.00     0.033 C 
HETATM    4  C   LIG     1      27.147  31.045  34.856  1.00  0.00     0.008 C 
ENDBRANCH   2   3
BRANCH   2   5
HETATM    5  C   LIG     1      27.530  29.507  37.432  1.00  0.00     0.033 C 
HETATM    6  C   LIG     1      27.233  28.030  37.155  1.00  0.00     0.008 C 
ENDBRANCH   2   5
BRANCH   2   7
HETATM    7  O   LIG     1      25.195  29.929  37.885  1.00  0.00    -0.390 OA
HETATM    8  H   LIG     1      25.117  28.975  37.620  1.00  0.00     0.210 HD
ENDBRANCH   2   7
TORSDOF 3
ENDMDL
