REMARK  9 active torsions:
REMARK  status: ('A' for Active; 'I' for Inactive)
REMARK    1  A    between atoms: O_1  and  C_2 
REMARK    2  A    between atoms: C_2  and  C_10 
REMARK    3  A    between atoms: C_2  and  C_6 
REMARK    4  A    between atoms: C_2  and  C_3 
REMARK    5  A    between atoms: C_3  and  O_4 
REMARK    6  A    between atoms: C_6  and  C_7 
REMARK    7  A    between atoms: C_7  and  O_8 
REMARK    8  A    between atoms: C_10  and  C_11 
REMARK    9  A    between atoms: C_11  and  O_12 
ROOT
HETATM    1  C   LIG     1       0.075   0.405   0.301  1.00  0.00     0.161 C 
ENDROOT
BRANCH   1   2
HETATM    2  O   LIG     1       0.032   0.130   1.683  1.00  0.00    -0.378 OA
HETATM    3  H   LIG     1      -0.401  -0.753   1.817  1.00  0.00     0.211 HD
ENDBRANCH   1   2
BRANCH   1   4
HETATM    4  C   LIG     1       0.594  -0.835  -0.494  1.00  0.00     0.159 C 
BRANCH   4   5
HETATM    5  C   LIG     1       1.950  -1.295  -0.039  1.00  0.00     0.142 C 
HETATM    6  O   LIG     1       2.926  -1.266  -0.836  1.00  0.00    -0.650 OA
BRANCH   5   7
HETATM    7  O   LIG     1       2.128  -1.776   1.254  1.00  0.00    -0.776 OA
HETATM    8  H   LIG     1       3.036  -2.095   1.570  1.00  0.00     0.167 HD
ENDBRANCH   5   7
ENDBRANCH   4   5
ENDBRANCH   1   4
BRANCH   1   9
HETATM    9  C   LIG     1      -1.337   0.818  -0.199  1.00  0.00     0.159 C 
BRANCH   9  10
HETATM   10  C   LIG     1      -2.375  -0.257  -0.050  1.00  0.00     0.142 C 
HETATM   11  O   LIG     1      -2.832  -0.548   1.088  1.00  0.00    -0.650 OA
BRANCH  10  12
HETATM   12  O   LIG     1      -2.858  -0.912  -1.179  1.00  0.00    -0.776 OA
HETATM   13  H   LIG     1      -3.564  -1.634  -1.098  1.00  0.00     0.167 HD
ENDBRANCH  10  12
ENDBRANCH   9  10
ENDBRANCH   1   9
BRANCH   1  14
HETATM   14  C   LIG     1       0.984   1.603   0.108  1.00  0.00     0.176 C 
HETATM   15  O   LIG     1       1.881   1.611  -0.778  1.00  0.00    -0.648 OA
BRANCH  14  16
HETATM   16  O   LIG     1       0.808   2.728   0.910  1.00  0.00    -0.774 OA
HETATM   17  H   LIG     1       1.396   3.545   0.795  1.00  0.00     0.167 HD
ENDBRANCH  14  16
ENDBRANCH   1  14
TORSDOF 9
