MODEL 1
REMARK VINA RESULT:      -5.5      0.000      0.000
REMARK  9 active torsions:
REMARK  status: ('A' for Active; 'I' for Inactive)
REMARK    1  A    between atoms: O_1  and  C_2 
REMARK    2  A    between atoms: C_2  and  C_10 
REMARK    3  A    between atoms: C_2  and  C_6 
REMARK    4  A    between atoms: C_2  and  C_3 
REMARK    5  A    between atoms: C_3  and  O_4 
REMARK    6  A    between atoms: C_6  and  C_7 
REMARK    7  A    between atoms: C_7  and  O_8 
REMARK    8  A    between atoms: C_10  and  C_11 
REMARK    9  A    between atoms: C_11  and  O_12 
ROOT
HETATM    1  C   LIG     1      16.607  36.370  22.202  1.00  0.00     0.161 C 
ENDROOT
BRANCH   1   2
HETATM    2  O   LIG     1      17.205  35.212  22.739  1.00  0.00    -0.378 OA
HETATM    3  H   LIG     1      17.993  35.484  23.279  1.00  0.00     0.211 HD
ENDBRANCH   1   2
BRANCH   1   4
HETATM    4  C   LIG     1      15.260  36.019  21.494  1.00  0.00     0.159 C 
BRANCH   4   5
HETATM    5  C   LIG     1      15.136  34.558  21.165  1.00  0.00     0.142 C 
HETATM    6  O   LIG     1      16.017  33.993  20.462  1.00  0.00    -0.650 OA
BRANCH   5   7
HETATM    7  O   LIG     1      14.039  33.831  21.614  1.00  0.00    -0.776 OA
HETATM    8  H   LIG     1      13.201  33.753  21.051  1.00  0.00     0.167 HD
ENDBRANCH   5   7
ENDBRANCH   4   5
ENDBRANCH   1   4
BRANCH   1   9
HETATM    9  C   LIG     1      16.372  37.413  23.329  1.00  0.00     0.159 C 
BRANCH   9  10
HETATM   10  C   LIG     1      17.315  37.281  24.490  1.00  0.00     0.142 C 
HETATM   11  O   LIG     1      17.189  36.330  25.308  1.00  0.00    -0.650 OA
BRANCH  10  12
HETATM   12  O   LIG     1      18.354  38.194  24.643  1.00  0.00    -0.776 OA
HETATM   13  H   LIG     1      19.319  37.908  24.523  1.00  0.00     0.167 HD
ENDBRANCH  10  12
ENDBRANCH   9  10
ENDBRANCH   1   9
BRANCH   1  14
HETATM   14  C   LIG     1      17.598  36.980  21.230  1.00  0.00     0.176 C 
HETATM   15  O   LIG     1      18.093  38.122  21.427  1.00  0.00    -0.648 OA
BRANCH  14  16
HETATM   16  O   LIG     1      17.988  36.252  20.109  1.00  0.00    -0.774 OA
HETATM   17  H   LIG     1      18.111  36.706  19.212  1.00  0.00     0.167 HD
ENDBRANCH  14  16
ENDBRANCH   1  14
TORSDOF 9
ENDMDL
MODEL 2
REMARK VINA RESULT:      -5.4      1.731      2.704
REMARK  9 active torsions:
REMARK  status: ('A' for Active; 'I' for Inactive)
REMARK    1  A    between atoms: O_1  and  C_2 
REMARK    2  A    between atoms: C_2  and  C_10 
REMARK    3  A    between atoms: C_2  and  C_6 
REMARK    4  A    between atoms: C_2  and  C_3 
REMARK    5  A    between atoms: C_3  and  O_4 
REMARK    6  A    between atoms: C_6  and  C_7 
REMARK    7  A    between atoms: C_7  and  O_8 
REMARK    8  A    between atoms: C_10  and  C_11 
REMARK    9  A    between atoms: C_11  and  O_12 
ROOT
HETATM    1  C   LIG     1      16.918  36.820  22.827  1.00  0.00     0.161 C 
ENDROOT
BRANCH   1   2
HETATM    2  O   LIG     1      17.785  37.877  22.485  1.00  0.00    -0.378 OA
HETATM    3  H   LIG     1      18.720  37.548  22.533  1.00  0.00     0.211 HD
ENDBRANCH   1   2
BRANCH   1   4
HETATM    4  C   LIG     1      17.251  35.540  21.997  1.00  0.00     0.159 C 
BRANCH   4   5
HETATM    5  C   LIG     1      17.291  35.797  20.518  1.00  0.00     0.142 C 
HETATM    6  O   LIG     1      18.248  36.446  20.016  1.00  0.00    -0.650 OA
BRANCH   5   7
HETATM    7  O   LIG     1      16.262  35.342  19.700  1.00  0.00    -0.776 OA
HETATM    8  H   LIG     1      15.407  35.875  19.594  1.00  0.00     0.167 HD
ENDBRANCH   5   7
ENDBRANCH   4   5
ENDBRANCH   1   4
BRANCH   1   9
HETATM    9  C   LIG     1      17.023  36.523  24.349  1.00  0.00     0.159 C 
BRANCH   9  10
HETATM   10  C   LIG     1      17.652  37.631  25.144  1.00  0.00     0.142 C 
HETATM   11  O   LIG     1      17.081  38.751  25.238  1.00  0.00    -0.650 OA
BRANCH  10  12
HETATM   12  O   LIG     1      18.855  37.408  25.808  1.00  0.00    -0.776 OA
HETATM   13  H   LIG     1      19.133  37.991  26.588  1.00  0.00     0.167 HD
ENDBRANCH  10  12
ENDBRANCH   9  10
ENDBRANCH   1   9
BRANCH   1  14
HETATM   14  C   LIG     1      15.502  37.295  22.563  1.00  0.00     0.176 C 
HETATM   15  O   LIG     1      14.659  36.557  21.985  1.00  0.00    -0.648 OA
BRANCH  14  16
HETATM   16  O   LIG     1      15.118  38.563  22.991  1.00  0.00    -0.774 OA
HETATM   17  H   LIG     1      14.936  39.303  22.323  1.00  0.00     0.167 HD
ENDBRANCH  14  16
ENDBRANCH   1  14
TORSDOF 9
ENDMDL
MODEL 3
REMARK VINA RESULT:      -5.4      1.655      3.628
REMARK  9 active torsions:
REMARK  status: ('A' for Active; 'I' for Inactive)
REMARK    1  A    between atoms: O_1  and  C_2 
REMARK    2  A    between atoms: C_2  and  C_10 
REMARK    3  A    between atoms: C_2  and  C_6 
REMARK    4  A    between atoms: C_2  and  C_3 
REMARK    5  A    between atoms: C_3  and  O_4 
REMARK    6  A    between atoms: C_6  and  C_7 
REMARK    7  A    between atoms: C_7  and  O_8 
REMARK    8  A    between atoms: C_10  and  C_11 
REMARK    9  A    between atoms: C_11  and  O_12 
ROOT
HETATM    1  C   LIG     1      16.375  37.667  22.969  1.00  0.00     0.161 C 
ENDROOT
BRANCH   1   2
HETATM    2  O   LIG     1      15.226  38.032  23.700  1.00  0.00    -0.378 OA
HETATM    3  H   LIG     1      15.423  37.937  24.668  1.00  0.00     0.211 HD
ENDBRANCH   1   2
BRANCH   1   4
HETATM    4  C   LIG     1      16.887  38.865  22.108  1.00  0.00     0.159 C 
BRANCH   4   5
HETATM    5  C   LIG     1      18.299  38.678  21.628  1.00  0.00     0.142 C 
HETATM    6  O   LIG     1      18.542  37.888  20.677  1.00  0.00    -0.650 OA
BRANCH   5   7
HETATM    7  O   LIG     1      19.343  39.358  22.246  1.00  0.00    -0.776 OA
HETATM    8  H   LIG     1      20.273  38.958  22.284  1.00  0.00     0.167 HD
ENDBRANCH   5   7
ENDBRANCH   4   5
ENDBRANCH   1   4
BRANCH   1   9
HETATM    9  C   LIG     1      17.487  37.183  23.941  1.00  0.00     0.159 C 
BRANCH   9  10
HETATM   10  C   LIG     1      17.331  37.690  25.346  1.00  0.00     0.142 C 
HETATM   11  O   LIG     1      17.105  38.911  25.561  1.00  0.00    -0.650 OA
BRANCH  10  12
HETATM   12  O   LIG     1      17.405  36.800  26.414  1.00  0.00    -0.776 OA
HETATM   13  H   LIG     1      16.606  36.235  26.674  1.00  0.00     0.167 HD
ENDBRANCH  10  12
ENDBRANCH   9  10
ENDBRANCH   1   9
BRANCH   1  14
HETATM   14  C   LIG     1      15.998  36.484  22.099  1.00  0.00     0.176 C 
HETATM   15  O   LIG     1      14.825  36.339  21.659  1.00  0.00    -0.648 OA
BRANCH  14  16
HETATM   16  O   LIG     1      16.974  35.551  21.758  1.00  0.00    -0.774 OA
HETATM   17  H   LIG     1      17.953  35.808  21.735  1.00  0.00     0.167 HD
ENDBRANCH  14  16
ENDBRANCH   1  14
TORSDOF 9
ENDMDL
MODEL 4
REMARK VINA RESULT:      -5.3      1.603      3.292
REMARK  9 active torsions:
REMARK  status: ('A' for Active; 'I' for Inactive)
REMARK    1  A    between atoms: O_1  and  C_2 
REMARK    2  A    between atoms: C_2  and  C_10 
REMARK    3  A    between atoms: C_2  and  C_6 
REMARK    4  A    between atoms: C_2  and  C_3 
REMARK    5  A    between atoms: C_3  and  O_4 
REMARK    6  A    between atoms: C_6  and  C_7 
REMARK    7  A    between atoms: C_7  and  O_8 
REMARK    8  A    between atoms: C_10  and  C_11 
REMARK    9  A    between atoms: C_11  and  O_12 
ROOT
HETATM    1  C   LIG     1      16.327  37.665  23.277  1.00  0.00     0.161 C 
ENDROOT
BRANCH   1   2
HETATM    2  O   LIG     1      14.925  37.732  23.402  1.00  0.00    -0.378 OA
HETATM    3  H   LIG     1      14.552  36.820  23.282  1.00  0.00     0.211 HD
ENDBRANCH   1   2
BRANCH   1   4
HETATM    4  C   LIG     1      16.763  36.298  22.658  1.00  0.00     0.159 C 
BRANCH   4   5
HETATM    5  C   LIG     1      16.019  35.966  21.395  1.00  0.00     0.142 C 
HETATM    6  O   LIG     1      14.760  35.915  21.399  1.00  0.00    -0.650 OA
BRANCH   5   7
HETATM    7  O   LIG     1      16.718  35.689  20.225  1.00  0.00    -0.776 OA
HETATM    8  H   LIG     1      16.603  36.268  19.401  1.00  0.00     0.167 HD
ENDBRANCH   5   7
ENDBRANCH   4   5
ENDBRANCH   1   4
BRANCH   1   9
HETATM    9  C   LIG     1      16.836  38.843  22.402  1.00  0.00     0.159 C 
BRANCH   9  10
HETATM   10  C   LIG     1      18.263  38.700  21.955  1.00  0.00     0.142 C 
HETATM   11  O   LIG     1      18.532  38.173  20.843  1.00  0.00    -0.650 OA
BRANCH  10  12
HETATM   12  O   LIG     1      19.290  39.181  22.761  1.00  0.00    -0.776 OA
HETATM   13  H   LIG     1      19.307  38.983  23.755  1.00  0.00     0.167 HD
ENDBRANCH  10  12
ENDBRANCH   9  10
ENDBRANCH   1   9
BRANCH   1  14
HETATM   14  C   LIG     1      16.913  37.853  24.663  1.00  0.00     0.176 C 
HETATM   15  O   LIG     1      17.165  39.001  25.118  1.00  0.00    -0.648 OA
BRANCH  14  16
HETATM   16  O   LIG     1      17.154  36.736  25.458  1.00  0.00    -0.774 OA
HETATM   17  H   LIG     1      17.478  36.838  26.413  1.00  0.00     0.167 HD
ENDBRANCH  14  16
ENDBRANCH   1  14
TORSDOF 9
ENDMDL
MODEL 5
REMARK VINA RESULT:      -5.3      1.698      4.477
REMARK  9 active torsions:
REMARK  status: ('A' for Active; 'I' for Inactive)
REMARK    1  A    between atoms: O_1  and  C_2 
REMARK    2  A    between atoms: C_2  and  C_10 
REMARK    3  A    between atoms: C_2  and  C_6 
REMARK    4  A    between atoms: C_2  and  C_3 
REMARK    5  A    between atoms: C_3  and  O_4 
REMARK    6  A    between atoms: C_6  and  C_7 
REMARK    7  A    between atoms: C_7  and  O_8 
REMARK    8  A    between atoms: C_10  and  C_11 
REMARK    9  A    between atoms: C_11  and  O_12 
ROOT
HETATM    1  C   LIG     1      16.541  37.458  23.066  1.00  0.00     0.161 C 
ENDROOT
BRANCH   1   2
HETATM    2  O   LIG     1      15.207  37.779  23.388  1.00  0.00    -0.378 OA
HETATM    3  H   LIG     1      14.749  38.091  22.566  1.00  0.00     0.211 HD
ENDBRANCH   1   2
BRANCH   1   4
HETATM    4  C   LIG     1      17.206  36.636  24.215  1.00  0.00     0.159 C 
BRANCH   4   5
HETATM    5  C   LIG     1      17.620  37.489  25.380  1.00  0.00     0.142 C 
HETATM    6  O   LIG     1      16.871  38.423  25.775  1.00  0.00    -0.650 OA
BRANCH   5   7
HETATM    7  O   LIG     1      18.840  37.268  26.011  1.00  0.00    -0.776 OA
HETATM    8  H   LIG     1      19.085  36.350  26.361  1.00  0.00     0.167 HD
ENDBRANCH   5   7
ENDBRANCH   4   5
ENDBRANCH   1   4
BRANCH   1   9
HETATM    9  C   LIG     1      16.585  36.660  21.733  1.00  0.00     0.159 C 
BRANCH   9  10
HETATM   10  C   LIG     1      15.511  35.618  21.611  1.00  0.00     0.142 C 
HETATM   11  O   LIG     1      15.762  34.411  21.870  1.00  0.00    -0.650 OA
BRANCH  10  12
HETATM   12  O   LIG     1      14.223  35.994  21.241  1.00  0.00    -0.776 OA
HETATM   13  H   LIG     1      13.764  35.564  20.446  1.00  0.00     0.167 HD
ENDBRANCH  10  12
ENDBRANCH   9  10
ENDBRANCH   1   9
BRANCH   1  14
HETATM   14  C   LIG     1      17.274  38.764  22.828  1.00  0.00     0.176 C 
HETATM   15  O   LIG     1      18.403  38.791  22.268  1.00  0.00    -0.648 OA
BRANCH  14  16
HETATM   16  O   LIG     1      16.675  39.961  23.213  1.00  0.00    -0.774 OA
HETATM   17  H   LIG     1      15.763  40.223  22.857  1.00  0.00     0.167 HD
ENDBRANCH  14  16
ENDBRANCH   1  14
TORSDOF 9
ENDMDL
MODEL 6
REMARK VINA RESULT:      -5.2      4.588      7.099
REMARK  9 active torsions:
REMARK  status: ('A' for Active; 'I' for Inactive)
REMARK    1  A    between atoms: O_1  and  C_2 
REMARK    2  A    between atoms: C_2  and  C_10 
REMARK    3  A    between atoms: C_2  and  C_6 
REMARK    4  A    between atoms: C_2  and  C_3 
REMARK    5  A    between atoms: C_3  and  O_4 
REMARK    6  A    between atoms: C_6  and  C_7 
REMARK    7  A    between atoms: C_7  and  O_8 
REMARK    8  A    between atoms: C_10  and  C_11 
REMARK    9  A    between atoms: C_11  and  O_12 
ROOT
HETATM    1  C   LIG     1      14.535  32.644  17.032  1.00  0.00     0.161 C 
ENDROOT
BRANCH   1   2
HETATM    2  O   LIG     1      14.070  33.974  17.064  1.00  0.00    -0.378 OA
HETATM    3  H   LIG     1      14.758  34.560  16.653  1.00  0.00     0.211 HD
ENDBRANCH   1   2
BRANCH   1   4
HETATM    4  C   LIG     1      15.407  32.393  15.760  1.00  0.00     0.159 C 
BRANCH   4   5
HETATM    5  C   LIG     1      16.589  33.315  15.671  1.00  0.00     0.142 C 
HETATM    6  O   LIG     1      17.721  32.861  15.353  1.00  0.00    -0.650 OA
BRANCH   5   7
HETATM    7  O   LIG     1      16.445  34.668  15.962  1.00  0.00    -0.776 OA
HETATM    8  H   LIG     1      15.979  35.292  15.315  1.00  0.00     0.167 HD
ENDBRANCH   5   7
ENDBRANCH   4   5
ENDBRANCH   1   4
BRANCH   1   9
HETATM    9  C   LIG     1      15.352  32.339  18.318  1.00  0.00     0.159 C 
BRANCH   9  10
HETATM   10  C   LIG     1      15.314  33.440  19.339  1.00  0.00     0.142 C 
HETATM   11  O   LIG     1      15.857  34.552  19.097  1.00  0.00    -0.650 OA
BRANCH  10  12
HETATM   12  O   LIG     1      14.648  33.242  20.545  1.00  0.00    -0.776 OA
HETATM   13  H   LIG     1      15.160  33.177  21.416  1.00  0.00     0.167 HD
ENDBRANCH  10  12
ENDBRANCH   9  10
ENDBRANCH   1   9
BRANCH   1  14
HETATM   14  C   LIG     1      13.318  31.740  17.052  1.00  0.00     0.176 C 
HETATM   15  O   LIG     1      13.432  30.485  17.054  1.00  0.00    -0.648 OA
BRANCH  14  16
HETATM   16  O   LIG     1      12.047  32.310  17.096  1.00  0.00    -0.774 OA
HETATM   17  H   LIG     1      11.884  33.178  17.591  1.00  0.00     0.167 HD
ENDBRANCH  14  16
ENDBRANCH   1  14
TORSDOF 9
ENDMDL
MODEL 7
REMARK VINA RESULT:      -4.9      5.905      8.140
REMARK  9 active torsions:
REMARK  status: ('A' for Active; 'I' for Inactive)
REMARK    1  A    between atoms: O_1  and  C_2 
REMARK    2  A    between atoms: C_2  and  C_10 
REMARK    3  A    between atoms: C_2  and  C_6 
REMARK    4  A    between atoms: C_2  and  C_3 
REMARK    5  A    between atoms: C_3  and  O_4 
REMARK    6  A    between atoms: C_6  and  C_7 
REMARK    7  A    between atoms: C_7  and  O_8 
REMARK    8  A    between atoms: C_10  and  C_11 
REMARK    9  A    between atoms: C_11  and  O_12 
ROOT
HETATM    1  C   LIG     1      14.481  32.406  16.840  1.00  0.00     0.161 C 
ENDROOT
BRANCH   1   2
HETATM    2  O   LIG     1      13.185  32.956  16.763  1.00  0.00    -0.378 OA
HETATM    3  H   LIG     1      13.079  33.394  15.878  1.00  0.00     0.211 HD
ENDBRANCH   1   2
BRANCH   1   4
HETATM    4  C   LIG     1      14.548  31.038  16.090  1.00  0.00     0.159 C 
BRANCH   4   5
HETATM    5  C   LIG     1      13.190  30.462  15.804  1.00  0.00     0.142 C 
HETATM    6  O   LIG     1      12.919  30.027  14.652  1.00  0.00    -0.650 OA
BRANCH   5   7
HETATM    7  O   LIG     1      12.220  30.428  16.801  1.00  0.00    -0.776 OA
HETATM    8  H   LIG     1      12.481  30.374  17.778  1.00  0.00     0.167 HD
ENDBRANCH   5   7
ENDBRANCH   4   5
ENDBRANCH   1   4
BRANCH   1   9
HETATM    9  C   LIG     1      15.514  33.402  16.244  1.00  0.00     0.159 C 
BRANCH   9  10
HETATM   10  C   LIG     1      16.388  32.808  15.177  1.00  0.00     0.142 C 
HETATM   11  O   LIG     1      16.063  32.899  13.963  1.00  0.00    -0.650 OA
BRANCH  10  12
HETATM   12  O   LIG     1      17.581  32.183  15.530  1.00  0.00    -0.776 OA
HETATM   13  H   LIG     1      17.579  31.259  15.945  1.00  0.00     0.167 HD
ENDBRANCH  10  12
ENDBRANCH   9  10
ENDBRANCH   1   9
BRANCH   1  14
HETATM   14  C   LIG     1      14.815  32.245  18.310  1.00  0.00     0.176 C 
HETATM   15  O   LIG     1      15.699  32.952  18.864  1.00  0.00    -0.648 OA
BRANCH  14  16
HETATM   16  O   LIG     1      14.113  31.312  19.070  1.00  0.00    -0.774 OA
HETATM   17  H   LIG     1      14.439  31.041  19.990  1.00  0.00     0.167 HD
ENDBRANCH  14  16
ENDBRANCH   1  14
TORSDOF 9
ENDMDL
MODEL 8
REMARK VINA RESULT:      -4.9      1.366      4.380
REMARK  9 active torsions:
REMARK  status: ('A' for Active; 'I' for Inactive)
REMARK    1  A    between atoms: O_1  and  C_2 
REMARK    2  A    between atoms: C_2  and  C_10 
REMARK    3  A    between atoms: C_2  and  C_6 
REMARK    4  A    between atoms: C_2  and  C_3 
REMARK    5  A    between atoms: C_3  and  O_4 
REMARK    6  A    between atoms: C_6  and  C_7 
REMARK    7  A    between atoms: C_7  and  O_8 
REMARK    8  A    between atoms: C_10  and  C_11 
REMARK    9  A    between atoms: C_11  and  O_12 
ROOT
HETATM    1  C   LIG     1      16.777  37.085  22.380  1.00  0.00     0.161 C 
ENDROOT
BRANCH   1   2
HETATM    2  O   LIG     1      17.762  36.215  21.869  1.00  0.00    -0.378 OA
HETATM    3  H   LIG     1      17.367  35.694  21.121  1.00  0.00     0.211 HD
ENDBRANCH   1   2
BRANCH   1   4
HETATM    4  C   LIG     1      17.053  38.556  21.934  1.00  0.00     0.159 C 
BRANCH   4   5
HETATM    5  C   LIG     1      18.424  38.741  21.349  1.00  0.00     0.142 C 
HETATM    6  O   LIG     1      18.681  38.308  20.193  1.00  0.00    -0.650 OA
BRANCH   5   7
HETATM    7  O   LIG     1      19.421  39.369  22.088  1.00  0.00    -0.776 OA
HETATM    8  H   LIG     1      19.796  38.940  22.926  1.00  0.00     0.167 HD
ENDBRANCH   5   7
ENDBRANCH   4   5
ENDBRANCH   1   4
BRANCH   1   9
HETATM    9  C   LIG     1      15.370  36.628  21.903  1.00  0.00     0.159 C 
BRANCH   9  10
HETATM   10  C   LIG     1      15.372  35.320  21.166  1.00  0.00     0.142 C 
HETATM   11  O   LIG     1      14.740  34.330  21.624  1.00  0.00    -0.650 OA
BRANCH  10  12
HETATM   12  O   LIG     1      16.048  35.210  19.955  1.00  0.00    -0.776 OA
HETATM   13  H   LIG     1      16.528  34.354  19.704  1.00  0.00     0.167 HD
ENDBRANCH  10  12
ENDBRANCH   9  10
ENDBRANCH   1   9
BRANCH   1  14
HETATM   14  C   LIG     1      16.800  36.954  23.890  1.00  0.00     0.176 C 
HETATM   15  O   LIG     1      16.356  37.869  24.636  1.00  0.00    -0.648 OA
BRANCH  14  16
HETATM   16  O   LIG     1      17.299  35.788  24.465  1.00  0.00    -0.774 OA
HETATM   17  H   LIG     1      18.045  35.267  24.020  1.00  0.00     0.167 HD
ENDBRANCH  14  16
ENDBRANCH   1  14
TORSDOF 9
ENDMDL
MODEL 9
REMARK VINA RESULT:      -4.8      7.419      9.561
REMARK  9 active torsions:
REMARK  status: ('A' for Active; 'I' for Inactive)
REMARK    1  A    between atoms: O_1  and  C_2 
REMARK    2  A    between atoms: C_2  and  C_10 
REMARK    3  A    between atoms: C_2  and  C_6 
REMARK    4  A    between atoms: C_2  and  C_3 
REMARK    5  A    between atoms: C_3  and  O_4 
REMARK    6  A    between atoms: C_6  and  C_7 
REMARK    7  A    between atoms: C_7  and  O_8 
REMARK    8  A    between atoms: C_10  and  C_11 
REMARK    9  A    between atoms: C_11  and  O_12 
ROOT
HETATM    1  C   LIG     1      17.102  33.276  14.266  1.00  0.00     0.161 C 
ENDROOT
BRANCH   1   2
HETATM    2  O   LIG     1      16.250  33.290  13.143  1.00  0.00    -0.378 OA
HETATM    3  H   LIG     1      15.361  32.945  13.416  1.00  0.00     0.211 HD
ENDBRANCH   1   2
BRANCH   1   4
HETATM    4  C   LIG     1      16.866  31.991  15.123  1.00  0.00     0.159 C 
BRANCH   4   5
HETATM    5  C   LIG     1      15.704  31.171  14.638  1.00  0.00     0.142 C 
HETATM    6  O   LIG     1      14.632  31.143  15.301  1.00  0.00    -0.650 OA
BRANCH   5   7
HETATM    7  O   LIG     1      15.815  30.422  13.471  1.00  0.00    -0.776 OA
HETATM    8  H   LIG     1      16.524  29.704  13.379  1.00  0.00     0.167 HD
ENDBRANCH   5   7
ENDBRANCH   4   5
ENDBRANCH   1   4
BRANCH   1   9
HETATM    9  C   LIG     1      18.584  33.356  13.806  1.00  0.00     0.159 C 
BRANCH   9  10
HETATM   10  C   LIG     1      18.753  33.594  12.333  1.00  0.00     0.142 C 
HETATM   11  O   LIG     1      18.791  34.769  11.878  1.00  0.00    -0.650 OA
BRANCH  10  12
HETATM   12  O   LIG     1      18.900  32.512  11.471  1.00  0.00    -0.776 OA
HETATM   13  H   LIG     1      18.220  31.761  11.460  1.00  0.00     0.167 HD
ENDBRANCH  10  12
ENDBRANCH   9  10
ENDBRANCH   1   9
BRANCH   1  14
HETATM   14  C   LIG     1      16.815  34.532  15.066  1.00  0.00     0.176 C 
HETATM   15  O   LIG     1      16.190  34.485  16.160  1.00  0.00    -0.648 OA
BRANCH  14  16
HETATM   16  O   LIG     1      17.273  35.759  14.594  1.00  0.00    -0.774 OA
HETATM   17  H   LIG     1      18.132  35.823  14.061  1.00  0.00     0.167 HD
ENDBRANCH  14  16
ENDBRANCH   1  14
TORSDOF 9
ENDMDL
MODEL 10
REMARK VINA RESULT:      -4.7      8.148     10.218
REMARK  9 active torsions:
REMARK  status: ('A' for Active; 'I' for Inactive)
REMARK    1  A    between atoms: O_1  and  C_2 
REMARK    2  A    between atoms: C_2  and  C_10 
REMARK    3  A    between atoms: C_2  and  C_6 
REMARK    4  A    between atoms: C_2  and  C_3 
REMARK    5  A    between atoms: C_3  and  O_4 
REMARK    6  A    between atoms: C_6  and  C_7 
REMARK    7  A    between atoms: C_7  and  O_8 
REMARK    8  A    between atoms: C_10  and  C_11 
REMARK    9  A    between atoms: C_11  and  O_12 
ROOT
HETATM    1  C   LIG     1      18.005  33.479  13.361  1.00  0.00     0.161 C 
ENDROOT
BRANCH   1   2
HETATM    2  O   LIG     1      17.129  32.671  12.607  1.00  0.00    -0.378 OA
HETATM    3  H   LIG     1      17.607  32.359  11.794  1.00  0.00     0.211 HD
ENDBRANCH   1   2
BRANCH   1   4
HETATM    4  C   LIG     1      18.134  32.940  14.822  1.00  0.00     0.159 C 
BRANCH   4   5
HETATM    5  C   LIG     1      16.854  32.350  15.342  1.00  0.00     0.142 C 
HETATM    6  O   LIG     1      16.449  31.238  14.906  1.00  0.00    -0.650 OA
BRANCH   5   7
HETATM    7  O   LIG     1      16.100  33.037  16.287  1.00  0.00    -0.776 OA
HETATM    8  H   LIG     1      16.307  34.001  16.517  1.00  0.00     0.167 HD
ENDBRANCH   5   7
ENDBRANCH   4   5
ENDBRANCH   1   4
BRANCH   1   9
HETATM    9  C   LIG     1      19.398  33.529  12.676  1.00  0.00     0.159 C 
BRANCH   9  10
HETATM   10  C   LIG     1      19.392  33.073  11.246  1.00  0.00     0.142 C 
HETATM   11  O   LIG     1      19.729  31.896  10.950  1.00  0.00    -0.650 OA
BRANCH  10  12
HETATM   12  O   LIG     1      18.978  33.947  10.244  1.00  0.00    -0.776 OA
HETATM   13  H   LIG     1      18.588  33.597   9.378  1.00  0.00     0.167 HD
ENDBRANCH  10  12
ENDBRANCH   9  10
ENDBRANCH   1   9
BRANCH   1  14
HETATM   14  C   LIG     1      17.447  34.888  13.341  1.00  0.00     0.176 C 
HETATM   15  O   LIG     1      17.162  35.467  12.258  1.00  0.00    -0.648 OA
BRANCH  14  16
HETATM   16  O   LIG     1      17.222  35.549  14.547  1.00  0.00    -0.774 OA
HETATM   17  H   LIG     1      16.307  35.921  14.772  1.00  0.00     0.167 HD
ENDBRANCH  14  16
ENDBRANCH   1  14
TORSDOF 9
ENDMDL
MODEL 11
REMARK VINA RESULT:      -4.7      9.132     11.079
REMARK  9 active torsions:
REMARK  status: ('A' for Active; 'I' for Inactive)
REMARK    1  A    between atoms: O_1  and  C_2 
REMARK    2  A    between atoms: C_2  and  C_10 
REMARK    3  A    between atoms: C_2  and  C_6 
REMARK    4  A    between atoms: C_2  and  C_3 
REMARK    5  A    between atoms: C_3  and  O_4 
REMARK    6  A    between atoms: C_6  and  C_7 
REMARK    7  A    between atoms: C_7  and  O_8 
REMARK    8  A    between atoms: C_10  and  C_11 
REMARK    9  A    between atoms: C_11  and  O_12 
ROOT
HETATM    1  C   LIG     1      18.739  33.805  12.398  1.00  0.00     0.161 C 
ENDROOT
BRANCH   1   2
HETATM    2  O   LIG     1      18.581  32.551  11.774  1.00  0.00    -0.378 OA
HETATM    3  H   LIG     1      18.190  31.918  12.430  1.00  0.00     0.211 HD
ENDBRANCH   1   2
BRANCH   1   4
HETATM    4  C   LIG     1      18.201  33.765  13.864  1.00  0.00     0.159 C 
BRANCH   4   5
HETATM    5  C   LIG     1      17.079  32.783  14.048  1.00  0.00     0.142 C 
HETATM    6  O   LIG     1      17.106  31.968  15.009  1.00  0.00    -0.650 OA
BRANCH   5   7
HETATM    7  O   LIG     1      16.020  32.754  13.147  1.00  0.00    -0.776 OA
HETATM    8  H   LIG     1      15.904  33.486  12.456  1.00  0.00     0.167 HD
ENDBRANCH   5   7
ENDBRANCH   4   5
ENDBRANCH   1   4
BRANCH   1   9
HETATM    9  C   LIG     1      20.236  34.219  12.381  1.00  0.00     0.159 C 
BRANCH   9  10
HETATM   10  C   LIG     1      20.941  33.903  11.093  1.00  0.00     0.142 C 
HETATM   11  O   LIG     1      21.279  34.829  10.308  1.00  0.00    -0.650 OA
BRANCH  10  12
HETATM   12  O   LIG     1      21.252  32.582  10.782  1.00  0.00    -0.776 OA
HETATM   13  H   LIG     1      21.375  31.892  11.513  1.00  0.00     0.167 HD
ENDBRANCH  10  12
ENDBRANCH   9  10
ENDBRANCH   1   9
BRANCH   1  14
HETATM   14  C   LIG     1      17.986  34.822  11.563  1.00  0.00     0.176 C 
HETATM   15  O   LIG     1      17.165  35.624  12.086  1.00  0.00    -0.648 OA
BRANCH  14  16
HETATM   16  O   LIG     1      18.224  34.889  10.192  1.00  0.00    -0.774 OA
HETATM   17  H   LIG     1      18.479  35.765   9.751  1.00  0.00     0.167 HD
ENDBRANCH  14  16
ENDBRANCH   1  14
TORSDOF 9
ENDMDL
MODEL 12
REMARK VINA RESULT:      -4.5      6.814      9.369
REMARK  9 active torsions:
REMARK  status: ('A' for Active; 'I' for Inactive)
REMARK    1  A    between atoms: O_1  and  C_2 
REMARK    2  A    between atoms: C_2  and  C_10 
REMARK    3  A    between atoms: C_2  and  C_6 
REMARK    4  A    between atoms: C_2  and  C_3 
REMARK    5  A    between atoms: C_3  and  O_4 
REMARK    6  A    between atoms: C_6  and  C_7 
REMARK    7  A    between atoms: C_7  and  O_8 
REMARK    8  A    between atoms: C_10  and  C_11 
REMARK    9  A    between atoms: C_11  and  O_12 
ROOT
HETATM    1  C   LIG     1      15.913  31.753  14.621  1.00  0.00     0.161 C 
ENDROOT
BRANCH   1   2
HETATM    2  O   LIG     1      17.148  31.581  15.279  1.00  0.00    -0.378 OA
HETATM    3  H   LIG     1      17.318  30.609  15.386  1.00  0.00     0.211 HD
ENDBRANCH   1   2
BRANCH   1   4
HETATM    4  C   LIG     1      14.882  32.463  15.555  1.00  0.00     0.159 C 
BRANCH   4   5
HETATM    5  C   LIG     1      15.536  33.298  16.619  1.00  0.00     0.142 C 
HETATM    6  O   LIG     1      15.959  34.453  16.343  1.00  0.00    -0.650 OA
BRANCH   5   7
HETATM    7  O   LIG     1      15.698  32.792  17.905  1.00  0.00    -0.776 OA
HETATM    8  H   LIG     1      15.956  31.823  18.054  1.00  0.00     0.167 HD
ENDBRANCH   5   7
ENDBRANCH   4   5
ENDBRANCH   1   4
BRANCH   1   9
HETATM    9  C   LIG     1      16.120  32.575  13.318  1.00  0.00     0.159 C 
BRANCH   9  10
HETATM   10  C   LIG     1      17.424  33.317  13.266  1.00  0.00     0.142 C 
HETATM   11  O   LIG     1      18.393  32.858  12.603  1.00  0.00    -0.650 OA
BRANCH  10  12
HETATM   12  O   LIG     1      17.552  34.535  13.928  1.00  0.00    -0.776 OA
HETATM   13  H   LIG     1      16.923  34.785  14.681  1.00  0.00     0.167 HD
ENDBRANCH  10  12
ENDBRANCH   9  10
ENDBRANCH   1   9
BRANCH   1  14
HETATM   14  C   LIG     1      15.427  30.378  14.208  1.00  0.00     0.176 C 
HETATM   15  O   LIG     1      14.673  29.696  14.954  1.00  0.00    -0.648 OA
BRANCH  14  16
HETATM   16  O   LIG     1      15.801  29.867  12.967  1.00  0.00    -0.774 OA
HETATM   17  H   LIG     1      15.112  29.469  12.340  1.00  0.00     0.167 HD
ENDBRANCH  14  16
ENDBRANCH   1  14
TORSDOF 9
ENDMDL
MODEL 13
REMARK VINA RESULT:      -4.5      5.220      7.127
REMARK  9 active torsions:
REMARK  status: ('A' for Active; 'I' for Inactive)
REMARK    1  A    between atoms: O_1  and  C_2 
REMARK    2  A    between atoms: C_2  and  C_10 
REMARK    3  A    between atoms: C_2  and  C_6 
REMARK    4  A    between atoms: C_2  and  C_3 
REMARK    5  A    between atoms: C_3  and  O_4 
REMARK    6  A    between atoms: C_6  and  C_7 
REMARK    7  A    between atoms: C_7  and  O_8 
REMARK    8  A    between atoms: C_10  and  C_11 
REMARK    9  A    between atoms: C_11  and  O_12 
ROOT
HETATM    1  C   LIG     1      14.246  32.153  17.178  1.00  0.00     0.161 C 
ENDROOT
BRANCH   1   2
HETATM    2  O   LIG     1      13.028  31.618  17.643  1.00  0.00    -0.378 OA
HETATM    3  H   LIG     1      12.738  30.901  17.021  1.00  0.00     0.211 HD
ENDBRANCH   1   2
BRANCH   1   4
HETATM    4  C   LIG     1      14.103  33.680  16.881  1.00  0.00     0.159 C 
BRANCH   4   5
HETATM    5  C   LIG     1      15.386  34.436  17.078  1.00  0.00     0.142 C 
HETATM    6  O   LIG     1      15.644  34.960  18.195  1.00  0.00    -0.650 OA
BRANCH   5   7
HETATM    7  O   LIG     1      16.281  34.581  16.023  1.00  0.00    -0.776 OA
HETATM    8  H   LIG     1      16.792  35.446  15.889  1.00  0.00     0.167 HD
ENDBRANCH   5   7
ENDBRANCH   4   5
ENDBRANCH   1   4
BRANCH   1   9
HETATM    9  C   LIG     1      15.365  31.907  18.227  1.00  0.00     0.159 C 
BRANCH   9  10
HETATM   10  C   LIG     1      14.871  31.854  19.644  1.00  0.00     0.142 C 
HETATM   11  O   LIG     1      14.651  30.745  20.201  1.00  0.00    -0.650 OA
BRANCH  10  12
HETATM   12  O   LIG     1      14.686  33.036  20.356  1.00  0.00    -0.776 OA
HETATM   13  H   LIG     1      15.420  33.733  20.404  1.00  0.00     0.167 HD
ENDBRANCH  10  12
ENDBRANCH   9  10
ENDBRANCH   1   9
BRANCH   1  14
HETATM   14  C   LIG     1      14.629  31.383  15.929  1.00  0.00     0.176 C 
HETATM   15  O   LIG     1      13.953  30.395  15.534  1.00  0.00    -0.648 OA
BRANCH  14  16
HETATM   16  O   LIG     1      15.736  31.791  15.189  1.00  0.00    -0.774 OA
HETATM   17  H   LIG     1      15.946  31.370  14.292  1.00  0.00     0.167 HD
ENDBRANCH  14  16
ENDBRANCH   1  14
TORSDOF 9
ENDMDL
MODEL 14
REMARK VINA RESULT:      -4.3      2.524      4.930
REMARK  9 active torsions:
REMARK  status: ('A' for Active; 'I' for Inactive)
REMARK    1  A    between atoms: O_1  and  C_2 
REMARK    2  A    between atoms: C_2  and  C_10 
REMARK    3  A    between atoms: C_2  and  C_6 
REMARK    4  A    between atoms: C_2  and  C_3 
REMARK    5  A    between atoms: C_3  and  O_4 
REMARK    6  A    between atoms: C_6  and  C_7 
REMARK    7  A    between atoms: C_7  and  O_8 
REMARK    8  A    between atoms: C_10  and  C_11 
REMARK    9  A    between atoms: C_11  and  O_12 
ROOT
HETATM    1  C   LIG     1      18.475  38.648  20.878  1.00  0.00     0.161 C 
ENDROOT
BRANCH   1   2
HETATM    2  O   LIG     1      19.741  38.913  21.438  1.00  0.00    -0.378 OA
HETATM    3  H   LIG     1      19.677  39.734  21.992  1.00  0.00     0.211 HD
ENDBRANCH   1   2
BRANCH   1   4
HETATM    4  C   LIG     1      17.346  38.862  21.936  1.00  0.00     0.159 C 
BRANCH   4   5
HETATM    5  C   LIG     1      17.596  38.116  23.216  1.00  0.00     0.142 C 
HETATM    6  O   LIG     1      18.487  38.514  24.014  1.00  0.00    -0.650 OA
BRANCH   5   7
HETATM    7  O   LIG     1      16.863  36.971  23.513  1.00  0.00    -0.776 OA
HETATM    8  H   LIG     1      15.905  37.036  23.834  1.00  0.00     0.167 HD
ENDBRANCH   5   7
ENDBRANCH   4   5
ENDBRANCH   1   4
BRANCH   1   9
HETATM    9  C   LIG     1      18.242  39.563  19.644  1.00  0.00     0.159 C 
BRANCH   9  10
HETATM   10  C   LIG     1      19.194  39.311  18.510  1.00  0.00     0.142 C 
HETATM   11  O   LIG     1      18.764  38.917  17.393  1.00  0.00    -0.650 OA
BRANCH  10  12
HETATM   12  O   LIG     1      20.554  39.546  18.685  1.00  0.00    -0.776 OA
HETATM   13  H   LIG     1      20.905  40.486  18.828  1.00  0.00     0.167 HD
ENDBRANCH  10  12
ENDBRANCH   9  10
ENDBRANCH   1   9
BRANCH   1  14
HETATM   14  C   LIG     1      18.495  37.218  20.375  1.00  0.00     0.176 C 
HETATM   15  O   LIG     1      17.534  36.431  20.594  1.00  0.00    -0.648 OA
BRANCH  14  16
HETATM   16  O   LIG     1      19.587  36.772  19.634  1.00  0.00    -0.774 OA
HETATM   17  H   LIG     1      19.507  35.966  19.025  1.00  0.00     0.167 HD
ENDBRANCH  14  16
ENDBRANCH   1  14
TORSDOF 9
ENDMDL
MODEL 15
REMARK VINA RESULT:      -4.2      6.868      9.285
REMARK  9 active torsions:
REMARK  status: ('A' for Active; 'I' for Inactive)
REMARK    1  A    between atoms: O_1  and  C_2 
REMARK    2  A    between atoms: C_2  and  C_10 
REMARK    3  A    between atoms: C_2  and  C_6 
REMARK    4  A    between atoms: C_2  and  C_3 
REMARK    5  A    between atoms: C_3  and  O_4 
REMARK    6  A    between atoms: C_6  and  C_7 
REMARK    7  A    between atoms: C_7  and  O_8 
REMARK    8  A    between atoms: C_10  and  C_11 
REMARK    9  A    between atoms: C_11  and  O_12 
ROOT
HETATM    1  C   LIG     1      16.684  32.851  15.210  1.00  0.00     0.161 C 
ENDROOT
BRANCH   1   2
HETATM    2  O   LIG     1      17.680  31.932  15.600  1.00  0.00    -0.378 OA
HETATM    3  H   LIG     1      17.705  31.192  14.939  1.00  0.00     0.211 HD
ENDBRANCH   1   2
BRANCH   1   4
HETATM    4  C   LIG     1      17.328  34.166  14.665  1.00  0.00     0.159 C 
BRANCH   4   5
HETATM    5  C   LIG     1      17.840  34.027  13.260  1.00  0.00     0.142 C 
HETATM    6  O   LIG     1      18.751  33.195  13.000  1.00  0.00    -0.650 OA
BRANCH   5   7
HETATM    7  O   LIG     1      17.329  34.831  12.246  1.00  0.00    -0.776 OA
HETATM    8  H   LIG     1      17.835  35.646  11.924  1.00  0.00     0.167 HD
ENDBRANCH   5   7
ENDBRANCH   4   5
ENDBRANCH   1   4
BRANCH   1   9
HETATM    9  C   LIG     1      15.767  32.209  14.132  1.00  0.00     0.159 C 
BRANCH   9  10
HETATM   10  C   LIG     1      15.228  30.861  14.516  1.00  0.00     0.142 C 
HETATM   11  O   LIG     1      14.054  30.747  14.961  1.00  0.00    -0.650 OA
BRANCH  10  12
HETATM   12  O   LIG     1      16.018  29.727  14.348  1.00  0.00    -0.776 OA
HETATM   13  H   LIG     1      15.885  29.115  13.551  1.00  0.00     0.167 HD
ENDBRANCH  10  12
ENDBRANCH   9  10
ENDBRANCH   1   9
BRANCH   1  14
HETATM   14  C   LIG     1      15.821  33.123  16.426  1.00  0.00     0.176 C 
HETATM   15  O   LIG     1      15.914  32.420  17.468  1.00  0.00    -0.648 OA
BRANCH  14  16
HETATM   16  O   LIG     1      14.923  34.187  16.399  1.00  0.00    -0.774 OA
HETATM   17  H   LIG     1      13.970  34.055  16.082  1.00  0.00     0.167 HD
ENDBRANCH  14  16
ENDBRANCH   1  14
TORSDOF 9
ENDMDL
MODEL 16
REMARK VINA RESULT:      -4.0      1.493      4.383
REMARK  9 active torsions:
REMARK  status: ('A' for Active; 'I' for Inactive)
REMARK    1  A    between atoms: O_1  and  C_2 
REMARK    2  A    between atoms: C_2  and  C_10 
REMARK    3  A    between atoms: C_2  and  C_6 
REMARK    4  A    between atoms: C_2  and  C_3 
REMARK    5  A    between atoms: C_3  and  O_4 
REMARK    6  A    between atoms: C_6  and  C_7 
REMARK    7  A    between atoms: C_7  and  O_8 
REMARK    8  A    between atoms: C_10  and  C_11 
REMARK    9  A    between atoms: C_11  and  O_12 
ROOT
HETATM    1  C   LIG     1      16.816  36.415  22.166  1.00  0.00     0.161 C 
ENDROOT
BRANCH   1   2
HETATM    2  O   LIG     1      17.602  35.500  21.438  1.00  0.00    -0.378 OA
HETATM    3  H   LIG     1      18.281  35.109  22.047  1.00  0.00     0.211 HD
ENDBRANCH   1   2
BRANCH   1   4
HETATM    4  C   LIG     1      17.269  37.883  21.882  1.00  0.00     0.159 C 
BRANCH   4   5
HETATM    5  C   LIG     1      16.551  38.891  22.733  1.00  0.00     0.142 C 
HETATM    6  O   LIG     1      17.201  39.620  23.530  1.00  0.00    -0.650 OA
BRANCH   5   7
HETATM    7  O   LIG     1      15.167  39.008  22.662  1.00  0.00    -0.776 OA
HETATM    8  H   LIG     1      14.640  38.524  21.945  1.00  0.00     0.167 HD
ENDBRANCH   5   7
ENDBRANCH   4   5
ENDBRANCH   1   4
BRANCH   1   9
HETATM    9  C   LIG     1      15.317  36.230  21.803  1.00  0.00     0.159 C 
BRANCH   9  10
HETATM   10  C   LIG     1      15.024  34.963  21.051  1.00  0.00     0.142 C 
HETATM   11  O   LIG     1      14.490  33.984  21.637  1.00  0.00    -0.650 OA
BRANCH  10  12
HETATM   12  O   LIG     1      15.315  34.884  19.692  1.00  0.00    -0.776 OA
HETATM   13  H   LIG     1      15.885  35.589  19.241  1.00  0.00     0.167 HD
ENDBRANCH  10  12
ENDBRANCH   9  10
ENDBRANCH   1   9
BRANCH   1  14
HETATM   14  C   LIG     1      16.965  36.068  23.635  1.00  0.00     0.176 C 
HETATM   15  O   LIG     1      17.258  34.900  24.007  1.00  0.00    -0.648 OA
BRANCH  14  16
HETATM   16  O   LIG     1      16.798  37.067  24.591  1.00  0.00    -0.774 OA
HETATM   17  H   LIG     1      15.930  37.584  24.656  1.00  0.00     0.167 HD
ENDBRANCH  14  16
ENDBRANCH   1  14
TORSDOF 9
ENDMDL
MODEL 17
REMARK VINA RESULT:      -3.8      4.647      7.626
REMARK  9 active torsions:
REMARK  status: ('A' for Active; 'I' for Inactive)
REMARK    1  A    between atoms: O_1  and  C_2 
REMARK    2  A    between atoms: C_2  and  C_10 
REMARK    3  A    between atoms: C_2  and  C_6 
REMARK    4  A    between atoms: C_2  and  C_3 
REMARK    5  A    between atoms: C_3  and  O_4 
REMARK    6  A    between atoms: C_6  and  C_7 
REMARK    7  A    between atoms: C_7  and  O_8 
REMARK    8  A    between atoms: C_10  and  C_11 
REMARK    9  A    between atoms: C_11  and  O_12 
ROOT
HETATM    1  C   LIG     1      15.066  32.832  17.061  1.00  0.00     0.161 C 
ENDROOT
BRANCH   1   2
HETATM    2  O   LIG     1      16.026  32.066  17.752  1.00  0.00    -0.378 OA
HETATM    3  H   LIG     1      16.279  32.549  18.582  1.00  0.00     0.211 HD
ENDBRANCH   1   2
BRANCH   1   4
HETATM    4  C   LIG     1      14.933  34.254  17.692  1.00  0.00     0.159 C 
BRANCH   4   5
HETATM    5  C   LIG     1      15.374  34.299  19.128  1.00  0.00     0.142 C 
HETATM    6  O   LIG     1      16.251  35.128  19.492  1.00  0.00    -0.650 OA
BRANCH   5   7
HETATM    7  O   LIG     1      14.834  33.413  20.054  1.00  0.00    -0.776 OA
HETATM    8  H   LIG     1      14.873  32.412  19.900  1.00  0.00     0.167 HD
ENDBRANCH   5   7
ENDBRANCH   4   5
ENDBRANCH   1   4
BRANCH   1   9
HETATM    9  C   LIG     1      15.457  32.939  15.561  1.00  0.00     0.159 C 
BRANCH   9  10
HETATM   10  C   LIG     1      16.601  32.050  15.164  1.00  0.00     0.142 C 
HETATM   11  O   LIG     1      16.381  30.908  14.679  1.00  0.00    -0.650 OA
BRANCH  10  12
HETATM   12  O   LIG     1      17.909  32.504  15.303  1.00  0.00    -0.776 OA
HETATM   13  H   LIG     1      18.100  33.447  15.622  1.00  0.00     0.167 HD
ENDBRANCH  10  12
ENDBRANCH   9  10
ENDBRANCH   1   9
BRANCH   1  14
HETATM   14  C   LIG     1      13.753  32.075  17.126  1.00  0.00     0.176 C 
HETATM   15  O   LIG     1      12.684  32.577  16.685  1.00  0.00    -0.648 OA
BRANCH  14  16
HETATM   16  O   LIG     1      13.734  30.790  17.661  1.00  0.00    -0.774 OA
HETATM   17  H   LIG     1      12.858  30.341  17.902  1.00  0.00     0.167 HD
ENDBRANCH  14  16
ENDBRANCH   1  14
TORSDOF 9
ENDMDL
MODEL 18
REMARK VINA RESULT:      -3.7      6.190      8.562
REMARK  9 active torsions:
REMARK  status: ('A' for Active; 'I' for Inactive)
REMARK    1  A    between atoms: O_1  and  C_2 
REMARK    2  A    between atoms: C_2  and  C_10 
REMARK    3  A    between atoms: C_2  and  C_6 
REMARK    4  A    between atoms: C_2  and  C_3 
REMARK    5  A    between atoms: C_3  and  O_4 
REMARK    6  A    between atoms: C_6  and  C_7 
REMARK    7  A    between atoms: C_7  and  O_8 
REMARK    8  A    between atoms: C_10  and  C_11 
REMARK    9  A    between atoms: C_11  and  O_12 
ROOT
HETATM    1  C   LIG     1      16.558  32.505  15.353  1.00  0.00     0.161 C 
ENDROOT
BRANCH   1   2
HETATM    2  O   LIG     1      17.034  31.610  16.333  1.00  0.00    -0.378 OA
HETATM    3  H   LIG     1      17.374  30.795  15.879  1.00  0.00     0.211 HD
ENDBRANCH   1   2
BRANCH   1   4
HETATM    4  C   LIG     1      15.612  33.572  15.991  1.00  0.00     0.159 C 
BRANCH   4   5
HETATM    5  C   LIG     1      14.924  33.075  17.231  1.00  0.00     0.142 C 
HETATM    6  O   LIG     1      15.533  33.080  18.335  1.00  0.00    -0.650 OA
BRANCH   5   7
HETATM    7  O   LIG     1      13.624  32.587  17.161  1.00  0.00    -0.776 OA
HETATM    8  H   LIG     1      12.832  33.184  17.369  1.00  0.00     0.167 HD
ENDBRANCH   5   7
ENDBRANCH   4   5
ENDBRANCH   1   4
BRANCH   1   9
HETATM    9  C   LIG     1      17.756  33.197  14.644  1.00  0.00     0.159 C 
BRANCH   9  10
HETATM   10  C   LIG     1      17.388  34.461  13.921  1.00  0.00     0.142 C 
HETATM   11  O   LIG     1      17.409  35.568  14.523  1.00  0.00    -0.650 OA
BRANCH  10  12
HETATM   12  O   LIG     1      17.056  34.412  12.570  1.00  0.00    -0.776 OA
HETATM   13  H   LIG     1      16.140  34.705  12.251  1.00  0.00     0.167 HD
ENDBRANCH  10  12
ENDBRANCH   9  10
ENDBRANCH   1   9
BRANCH   1  14
HETATM   14  C   LIG     1      15.834  31.683  14.305  1.00  0.00     0.176 C 
HETATM   15  O   LIG     1      16.282  31.574  13.131  1.00  0.00    -0.648 OA
BRANCH  14  16
HETATM   16  O   LIG     1      14.663  31.014  14.653  1.00  0.00    -0.774 OA
HETATM   17  H   LIG     1      13.994  31.435  15.287  1.00  0.00     0.167 HD
ENDBRANCH  14  16
ENDBRANCH   1  14
TORSDOF 9
ENDMDL
MODEL 19
REMARK VINA RESULT:      -3.7      3.692      5.476
REMARK  9 active torsions:
REMARK  status: ('A' for Active; 'I' for Inactive)
REMARK    1  A    between atoms: O_1  and  C_2 
REMARK    2  A    between atoms: C_2  and  C_10 
REMARK    3  A    between atoms: C_2  and  C_6 
REMARK    4  A    between atoms: C_2  and  C_3 
REMARK    5  A    between atoms: C_3  and  O_4 
REMARK    6  A    between atoms: C_6  and  C_7 
REMARK    7  A    between atoms: C_7  and  O_8 
REMARK    8  A    between atoms: C_10  and  C_11 
REMARK    9  A    between atoms: C_11  and  O_12 
ROOT
HETATM    1  C   LIG     1      19.157  38.559  18.763  1.00  0.00     0.161 C 
ENDROOT
BRANCH   1   2
HETATM    2  O   LIG     1      18.202  37.593  18.386  1.00  0.00    -0.378 OA
HETATM    3  H   LIG     1      18.643  36.924  17.799  1.00  0.00     0.211 HD
ENDBRANCH   1   2
BRANCH   1   4
HETATM    4  C   LIG     1      19.621  39.391  17.525  1.00  0.00     0.159 C 
BRANCH   4   5
HETATM    5  C   LIG     1      18.473  39.899  16.699  1.00  0.00     0.142 C 
HETATM    6  O   LIG     1      18.024  39.204  15.749  1.00  0.00    -0.650 OA
BRANCH   5   7
HETATM    7  O   LIG     1      17.918  41.147  16.965  1.00  0.00    -0.776 OA
HETATM    8  H   LIG     1      17.500  41.349  17.865  1.00  0.00     0.167 HD
ENDBRANCH   5   7
ENDBRANCH   4   5
ENDBRANCH   1   4
BRANCH   1   9
HETATM    9  C   LIG     1      18.560  39.493  19.852  1.00  0.00     0.159 C 
BRANCH   9  10
HETATM   10  C   LIG     1      18.456  38.858  21.209  1.00  0.00     0.142 C 
HETATM   11  O   LIG     1      17.614  37.945  21.421  1.00  0.00    -0.650 OA
BRANCH  10  12
HETATM   12  O   LIG     1      19.316  39.259  22.227  1.00  0.00    -0.776 OA
HETATM   13  H   LIG     1      19.901  38.585  22.707  1.00  0.00     0.167 HD
ENDBRANCH  10  12
ENDBRANCH   9  10
ENDBRANCH   1   9
BRANCH   1  14
HETATM   14  C   LIG     1      20.319  37.821  19.397  1.00  0.00     0.176 C 
HETATM   15  O   LIG     1      21.350  38.432  19.790  1.00  0.00    -0.648 OA
BRANCH  14  16
HETATM   16  O   LIG     1      20.237  36.442  19.572  1.00  0.00    -0.774 OA
HETATM   17  H   LIG     1      20.829  35.814  19.041  1.00  0.00     0.167 HD
ENDBRANCH  14  16
ENDBRANCH   1  14
TORSDOF 9
ENDMDL
MODEL 20
REMARK VINA RESULT:      -3.4     16.770     17.800
REMARK  9 active torsions:
REMARK  status: ('A' for Active; 'I' for Inactive)
REMARK    1  A    between atoms: O_1  and  C_2 
REMARK    2  A    between atoms: C_2  and  C_10 
REMARK    3  A    between atoms: C_2  and  C_6 
REMARK    4  A    between atoms: C_2  and  C_3 
REMARK    5  A    between atoms: C_3  and  O_4 
REMARK    6  A    between atoms: C_6  and  C_7 
REMARK    7  A    between atoms: C_7  and  O_8 
REMARK    8  A    between atoms: C_10  and  C_11 
REMARK    9  A    between atoms: C_11  and  O_12 
ROOT
HETATM    1  C   LIG     1      27.521  29.823  34.948  1.00  0.00     0.161 C 
ENDROOT
BRANCH   1   2
HETATM    2  O   LIG     1      28.017  29.075  36.035  1.00  0.00    -0.378 OA
HETATM    3  H   LIG     1      28.994  29.235  36.109  1.00  0.00     0.211 HD
ENDBRANCH   1   2
BRANCH   1   4
HETATM    4  C   LIG     1      27.484  28.954  33.650  1.00  0.00     0.159 C 
BRANCH   4   5
HETATM    5  C   LIG     1      26.561  27.774  33.763  1.00  0.00     0.142 C 
HETATM    6  O   LIG     1      26.650  26.996  34.751  1.00  0.00    -0.650 OA
BRANCH   5   7
HETATM    7  O   LIG     1      25.621  27.523  32.769  1.00  0.00    -0.776 OA
HETATM    8  H   LIG     1      25.880  27.551  31.790  1.00  0.00     0.167 HD
ENDBRANCH   5   7
ENDBRANCH   4   5
ENDBRANCH   1   4
BRANCH   1   9
HETATM    9  C   LIG     1      26.102  30.361  35.281  1.00  0.00     0.159 C 
BRANCH   9  10
HETATM   10  C   LIG     1      25.908  30.715  36.728  1.00  0.00     0.142 C 
HETATM   11  O   LIG     1      26.175  31.875  37.141  1.00  0.00    -0.650 OA
BRANCH  10  12
HETATM   12  O   LIG     1      25.401  29.765  37.609  1.00  0.00    -0.776 OA
HETATM   13  H   LIG     1      25.036  28.883  37.269  1.00  0.00     0.167 HD
ENDBRANCH  10  12
ENDBRANCH   9  10
ENDBRANCH   1   9
BRANCH   1  14
HETATM   14  C   LIG     1      28.426  31.027  34.778  1.00  0.00     0.176 C 
HETATM   15  O   LIG     1      28.599  31.566  33.651  1.00  0.00    -0.648 OA
BRANCH  14  16
HETATM   16  O   LIG     1      29.060  31.565  35.896  1.00  0.00    -0.774 OA
HETATM   17  H   LIG     1      29.641  32.391  35.815  1.00  0.00     0.167 HD
ENDBRANCH  14  16
ENDBRANCH   1  14
TORSDOF 9
ENDMDL
