MODEL 1
REMARK VINA RESULT:      -8.8      0.000      0.000
REMARK  0 active torsions:
REMARK  status: ('A' for Active; 'I' for Inactive)
ROOT
HETATM    1  C   LIG     1      16.704  34.890  21.769  1.00  0.00     0.050 C 
HETATM    2  C   LIG     1      17.343  36.041  22.527  1.00  0.00    -0.040 A 
HETATM    3  C   LIG     1      17.456  36.028  23.951  1.00  0.00    -0.019 A 
HETATM    4  C   LIG     1      17.184  34.876  24.729  1.00  0.00     0.013 A 
HETATM    5  C   LIG     1      17.275  34.914  26.122  1.00  0.00     0.001 A 
HETATM    6  C   LIG     1      17.652  36.084  26.772  1.00  0.00     0.001 A 
HETATM    7  C   LIG     1      17.966  37.222  26.030  1.00  0.00     0.012 A 
HETATM    8  C   LIG     1      17.887  37.201  24.628  1.00  0.00    -0.025 A 
HETATM    9  C   LIG     1      18.252  38.339  23.907  1.00  0.00     0.024 A 
HETATM   10  C   LIG     1      18.238  38.333  22.512  1.00  0.00    -0.025 A 
HETATM   11  C   LIG     1      17.800  37.182  21.806  1.00  0.00    -0.019 A 
HETATM   12  C   LIG     1      17.835  37.212  20.391  1.00  0.00     0.013 A 
HETATM   13  C   LIG     1      18.265  38.354  19.710  1.00  0.00     0.001 A 
HETATM   14  C   LIG     1      18.671  39.483  20.416  1.00  0.00     0.001 A 
HETATM   15  C   LIG     1      18.662  39.475  21.810  1.00  0.00     0.012 A 
ENDROOT
TORSDOF 0
ENDMDL
MODEL 2
REMARK VINA RESULT:      -7.5      1.207      5.017
REMARK  0 active torsions:
REMARK  status: ('A' for Active; 'I' for Inactive)
ROOT
HETATM    1  C   LIG     1      17.806  38.747  22.544  1.00  0.00     0.050 C 
HETATM    2  C   LIG     1      17.539  37.299  22.915  1.00  0.00    -0.040 A 
HETATM    3  C   LIG     1      17.005  36.370  21.971  1.00  0.00    -0.019 A 
HETATM    4  C   LIG     1      16.890  36.665  20.589  1.00  0.00     0.013 A 
HETATM    5  C   LIG     1      16.332  35.741  19.703  1.00  0.00     0.001 A 
HETATM    6  C   LIG     1      15.894  34.503  20.160  1.00  0.00     0.001 A 
HETATM    7  C   LIG     1      16.032  34.168  21.505  1.00  0.00     0.012 A 
HETATM    8  C   LIG     1      16.597  35.081  22.411  1.00  0.00    -0.025 A 
HETATM    9  C   LIG     1      16.768  34.705  23.744  1.00  0.00     0.024 A 
HETATM   10  C   LIG     1      17.375  35.568  24.656  1.00  0.00    -0.025 A 
HETATM   11  C   LIG     1      17.782  36.866  24.251  1.00  0.00    -0.019 A 
HETATM   12  C   LIG     1      18.425  37.693  25.204  1.00  0.00     0.013 A 
HETATM   13  C   LIG     1      18.628  37.251  26.514  1.00  0.00     0.001 A 
HETATM   14  C   LIG     1      18.205  35.983  26.902  1.00  0.00     0.001 A 
HETATM   15  C   LIG     1      17.584  35.142  25.980  1.00  0.00     0.012 A 
ENDROOT
TORSDOF 0
ENDMDL
MODEL 3
REMARK VINA RESULT:      -7.3      1.086      4.864
REMARK  0 active torsions:
REMARK  status: ('A' for Active; 'I' for Inactive)
ROOT
HETATM    1  C   LIG     1      17.327  34.978  21.302  1.00  0.00     0.050 C 
HETATM    2  C   LIG     1      17.674  36.422  21.618  1.00  0.00    -0.040 A 
HETATM    3  C   LIG     1      18.160  37.312  20.612  1.00  0.00    -0.019 A 
HETATM    4  C   LIG     1      18.151  36.986  19.233  1.00  0.00     0.013 A 
HETATM    5  C   LIG     1      18.665  37.871  18.283  1.00  0.00     0.001 A 
HETATM    6  C   LIG     1      19.182  39.102  18.675  1.00  0.00     0.001 A 
HETATM    7  C   LIG     1      19.166  39.468  20.019  1.00  0.00     0.012 A 
HETATM    8  C   LIG     1      18.646  38.594  20.988  1.00  0.00    -0.025 A 
HETATM    9  C   LIG     1      18.599  39.003  22.322  1.00  0.00     0.024 A 
HETATM   10  C   LIG     1      18.039  38.181  23.300  1.00  0.00    -0.025 A 
HETATM   11  C   LIG     1      17.556  36.891  22.958  1.00  0.00    -0.019 A 
HETATM   12  C   LIG     1      16.965  36.106  23.979  1.00  0.00     0.013 A 
HETATM   13  C   LIG     1      16.886  36.581  25.291  1.00  0.00     0.001 A 
HETATM   14  C   LIG     1      17.383  37.841  25.614  1.00  0.00     0.001 A 
HETATM   15  C   LIG     1      17.954  38.640  24.626  1.00  0.00     0.012 A 
ENDROOT
TORSDOF 0
ENDMDL
MODEL 4
REMARK VINA RESULT:      -7.1      1.141      5.486
REMARK  0 active torsions:
REMARK  status: ('A' for Active; 'I' for Inactive)
ROOT
HETATM    1  C   LIG     1      17.906  39.797  23.148  1.00  0.00     0.050 C 
HETATM    2  C   LIG     1      17.947  38.446  22.455  1.00  0.00    -0.040 A 
HETATM    3  C   LIG     1      18.257  38.327  21.065  1.00  0.00    -0.019 A 
HETATM    4  C   LIG     1      18.749  39.410  20.296  1.00  0.00     0.013 A 
HETATM    5  C   LIG     1      19.010  39.261  18.932  1.00  0.00     0.001 A 
HETATM    6  C   LIG     1      18.806  38.036  18.306  1.00  0.00     0.001 A 
HETATM    7  C   LIG     1      18.362  36.941  19.046  1.00  0.00     0.012 A 
HETATM    8  C   LIG     1      18.101  37.070  20.420  1.00  0.00    -0.025 A 
HETATM    9  C   LIG     1      17.703  35.948  21.148  1.00  0.00     0.024 A 
HETATM   10  C   LIG     1      17.489  36.030  22.524  1.00  0.00    -0.025 A 
HETATM   11  C   LIG     1      17.624  37.273  23.195  1.00  0.00    -0.019 A 
HETATM   12  C   LIG     1      17.430  37.299  24.598  1.00  0.00     0.013 A 
HETATM   13  C   LIG     1      17.089  36.137  25.295  1.00  0.00     0.001 A 
HETATM   14  C   LIG     1      16.941  34.929  24.619  1.00  0.00     0.001 A 
HETATM   15  C   LIG     1      17.141  34.872  23.241  1.00  0.00     0.012 A 
ENDROOT
TORSDOF 0
ENDMDL
MODEL 5
REMARK VINA RESULT:      -7.1      1.191      3.301
REMARK  0 active torsions:
REMARK  status: ('A' for Active; 'I' for Inactive)
ROOT
HETATM    1  C   LIG     1      17.808  38.567  22.142  1.00  0.00     0.050 C 
HETATM    2  C   LIG     1      17.408  37.223  22.726  1.00  0.00    -0.040 A 
HETATM    3  C   LIG     1      17.639  36.905  24.099  1.00  0.00    -0.019 A 
HETATM    4  C   LIG     1      18.051  37.872  25.049  1.00  0.00     0.013 A 
HETATM    5  C   LIG     1      18.298  37.514  26.376  1.00  0.00     0.001 A 
HETATM    6  C   LIG     1      18.126  36.199  26.794  1.00  0.00     0.001 A 
HETATM    7  C   LIG     1      17.682  35.234  25.893  1.00  0.00     0.012 A 
HETATM    8  C   LIG     1      17.422  35.576  24.556  1.00  0.00    -0.025 A 
HETATM    9  C   LIG     1      16.933  34.602  23.684  1.00  0.00     0.024 A 
HETATM   10  C   LIG     1      16.612  34.923  22.364  1.00  0.00    -0.025 A 
HETATM   11  C   LIG     1      16.830  36.237  21.875  1.00  0.00    -0.019 A 
HETATM   12  C   LIG     1      16.458  36.523  20.539  1.00  0.00     0.013 A 
HETATM   13  C   LIG     1      15.916  35.530  19.719  1.00  0.00     0.001 A 
HETATM   14  C   LIG     1      15.728  34.240  20.207  1.00  0.00     0.001 A 
HETATM   15  C   LIG     1      16.070  33.935  21.523  1.00  0.00     0.012 A 
ENDROOT
TORSDOF 0
ENDMDL
MODEL 6
REMARK VINA RESULT:      -6.6      2.401      5.211
REMARK  0 active torsions:
REMARK  status: ('A' for Active; 'I' for Inactive)
ROOT
HETATM    1  C   LIG     1      15.941  37.775  23.170  1.00  0.00     0.050 C 
HETATM    2  C   LIG     1      16.616  37.154  21.959  1.00  0.00    -0.040 A 
HETATM    3  C   LIG     1      17.728  37.781  21.318  1.00  0.00    -0.019 A 
HETATM    4  C   LIG     1      18.406  38.892  21.877  1.00  0.00     0.013 A 
HETATM    5  C   LIG     1      19.468  39.498  21.203  1.00  0.00     0.001 A 
HETATM    6  C   LIG     1      19.892  39.008  19.973  1.00  0.00     0.001 A 
HETATM    7  C   LIG     1      19.271  37.891  19.416  1.00  0.00     0.012 A 
HETATM    8  C   LIG     1      18.206  37.264  20.083  1.00  0.00    -0.025 A 
HETATM    9  C   LIG     1      17.632  36.119  19.528  1.00  0.00     0.024 A 
HETATM   10  C   LIG     1      16.609  35.442  20.192  1.00  0.00    -0.025 A 
HETATM   11  C   LIG     1      16.101  35.940  21.420  1.00  0.00    -0.019 A 
HETATM   12  C   LIG     1      15.086  35.198  22.072  1.00  0.00     0.013 A 
HETATM   13  C   LIG     1      14.581  34.024  21.508  1.00  0.00     0.001 A 
HETATM   14  C   LIG     1      15.076  33.560  20.293  1.00  0.00     0.001 A 
HETATM   15  C   LIG     1      16.086  34.261  19.636  1.00  0.00     0.012 A 
ENDROOT
TORSDOF 0
ENDMDL
MODEL 7
REMARK VINA RESULT:      -6.5      1.997      4.011
REMARK  0 active torsions:
REMARK  status: ('A' for Active; 'I' for Inactive)
ROOT
HETATM    1  C   LIG     1      16.608  37.459  23.541  1.00  0.00     0.050 C 
HETATM    2  C   LIG     1      16.883  37.044  22.106  1.00  0.00    -0.040 A 
HETATM    3  C   LIG     1      16.241  35.910  21.519  1.00  0.00    -0.019 A 
HETATM    4  C   LIG     1      15.164  35.233  22.143  1.00  0.00     0.013 A 
HETATM    5  C   LIG     1      14.585  34.108  21.552  1.00  0.00     0.001 A 
HETATM    6  C   LIG     1      15.046  33.642  20.325  1.00  0.00     0.001 A 
HETATM    7  C   LIG     1      16.076  34.312  19.667  1.00  0.00     0.012 A 
HETATM    8  C   LIG     1      16.666  35.449  20.244  1.00  0.00    -0.025 A 
HETATM    9  C   LIG     1      17.663  36.130  19.543  1.00  0.00     0.024 A 
HETATM   10  C   LIG     1      18.231  37.293  20.063  1.00  0.00    -0.025 A 
HETATM   11  C   LIG     1      17.838  37.772  21.339  1.00  0.00    -0.019 A 
HETATM   12  C   LIG     1      18.418  38.976  21.809  1.00  0.00     0.013 A 
HETATM   13  C   LIG     1      19.370  39.657  21.047  1.00  0.00     0.001 A 
HETATM   14  C   LIG     1      19.761  39.163  19.806  1.00  0.00     0.001 A 
HETATM   15  C   LIG     1      19.194  37.989  19.312  1.00  0.00     0.012 A 
ENDROOT
TORSDOF 0
ENDMDL
MODEL 8
REMARK VINA RESULT:      -6.2      1.169      2.982
REMARK  0 active torsions:
REMARK  status: ('A' for Active; 'I' for Inactive)
ROOT
HETATM    1  C   LIG     1      18.587  39.705  23.006  1.00  0.00     0.050 C 
HETATM    2  C   LIG     1      18.211  38.435  22.263  1.00  0.00    -0.040 A 
HETATM    3  C   LIG     1      17.718  37.284  22.950  1.00  0.00    -0.019 A 
HETATM    4  C   LIG     1      17.347  37.310  24.318  1.00  0.00     0.013 A 
HETATM    5  C   LIG     1      16.900  36.155  24.962  1.00  0.00     0.001 A 
HETATM    6  C   LIG     1      16.794  34.956  24.264  1.00  0.00     0.001 A 
HETATM    7  C   LIG     1      17.112  34.909  22.908  1.00  0.00     0.012 A 
HETATM    8  C   LIG     1      17.557  36.062  22.242  1.00  0.00    -0.025 A 
HETATM    9  C   LIG     1      17.824  36.000  20.873  1.00  0.00     0.024 A 
HETATM   10  C   LIG     1      18.215  37.141  20.171  1.00  0.00    -0.025 A 
HETATM   11  C   LIG     1      18.397  38.372  20.852  1.00  0.00    -0.019 A 
HETATM   12  C   LIG     1      18.760  39.510  20.090  1.00  0.00     0.013 A 
HETATM   13  C   LIG     1      18.960  39.413  18.711  1.00  0.00     0.001 A 
HETATM   14  C   LIG     1      18.798  38.193  18.060  1.00  0.00     0.001 A 
HETATM   15  C   LIG     1      18.424  37.061  18.783  1.00  0.00     0.012 A 
ENDROOT
TORSDOF 0
ENDMDL
MODEL 9
REMARK VINA RESULT:      -6.1      1.589      4.097
REMARK  0 active torsions:
REMARK  status: ('A' for Active; 'I' for Inactive)
ROOT
HETATM    1  C   LIG     1      18.213  37.259  19.523  1.00  0.00     0.050 C 
HETATM    2  C   LIG     1      17.443  36.658  20.686  1.00  0.00    -0.040 A 
HETATM    3  C   LIG     1      17.574  37.169  22.014  1.00  0.00    -0.019 A 
HETATM    4  C   LIG     1      18.248  38.381  22.304  1.00  0.00     0.013 A 
HETATM    5  C   LIG     1      18.382  38.830  23.619  1.00  0.00     0.001 A 
HETATM    6  C   LIG     1      17.839  38.100  24.671  1.00  0.00     0.001 A 
HETATM    7  C   LIG     1      17.136  36.925  24.413  1.00  0.00     0.012 A 
HETATM    8  C   LIG     1      16.984  36.462  23.096  1.00  0.00    -0.025 A 
HETATM    9  C   LIG     1      16.235  35.308  22.860  1.00  0.00     0.024 A 
HETATM   10  C   LIG     1      16.019  34.851  21.560  1.00  0.00    -0.025 A 
HETATM   11  C   LIG     1      16.605  35.528  20.459  1.00  0.00    -0.019 A 
HETATM   12  C   LIG     1      16.330  35.047  19.155  1.00  0.00     0.013 A 
HETATM   13  C   LIG     1      15.525  33.922  18.963  1.00  0.00     0.001 A 
HETATM   14  C   LIG     1      14.974  33.256  20.055  1.00  0.00     0.001 A 
HETATM   15  C   LIG     1      15.215  33.718  21.348  1.00  0.00     0.012 A 
ENDROOT
TORSDOF 0
ENDMDL
MODEL 10
REMARK VINA RESULT:      -6.1      8.510     11.326
REMARK  0 active torsions:
REMARK  status: ('A' for Active; 'I' for Inactive)
ROOT
HETATM    1  C   LIG     1      12.332  30.808  16.291  1.00  0.00     0.050 C 
HETATM    2  C   LIG     1      13.702  30.827  15.633  1.00  0.00    -0.040 A 
HETATM    3  C   LIG     1      14.603  31.920  15.814  1.00  0.00    -0.019 A 
HETATM    4  C   LIG     1      14.384  32.944  16.768  1.00  0.00     0.013 A 
HETATM    5  C   LIG     1      15.273  34.012  16.890  1.00  0.00     0.001 A 
HETATM    6  C   LIG     1      16.406  34.082  16.086  1.00  0.00     0.001 A 
HETATM    7  C   LIG     1      16.670  33.069  15.167  1.00  0.00     0.012 A 
HETATM    8  C   LIG     1      15.790  31.982  15.034  1.00  0.00    -0.025 A 
HETATM    9  C   LIG     1      16.102  30.956  14.140  1.00  0.00     0.024 A 
HETATM   10  C   LIG     1      15.278  29.837  14.024  1.00  0.00    -0.025 A 
HETATM   11  C   LIG     1      14.079  29.750  14.779  1.00  0.00    -0.019 A 
HETATM   12  C   LIG     1      13.293  28.580  14.653  1.00  0.00     0.013 A 
HETATM   13  C   LIG     1      13.674  27.551  13.789  1.00  0.00     0.001 A 
HETATM   14  C   LIG     1      14.843  27.659  13.039  1.00  0.00     0.001 A 
HETATM   15  C   LIG     1      15.644  28.793  13.156  1.00  0.00     0.012 A 
ENDROOT
TORSDOF 0
ENDMDL
MODEL 11
REMARK VINA RESULT:      -6.1      7.796     11.029
REMARK  0 active torsions:
REMARK  status: ('A' for Active; 'I' for Inactive)
ROOT
HETATM    1  C   LIG     1      15.387  34.029  16.922  1.00  0.00     0.050 C 
HETATM    2  C   LIG     1      15.576  33.021  15.802  1.00  0.00    -0.040 A 
HETATM    3  C   LIG     1      16.567  33.205  14.789  1.00  0.00    -0.019 A 
HETATM    4  C   LIG     1      17.568  34.205  14.871  1.00  0.00     0.013 A 
HETATM    5  C   LIG     1      18.499  34.373  13.844  1.00  0.00     0.001 A 
HETATM    6  C   LIG     1      18.471  33.547  12.726  1.00  0.00     0.001 A 
HETATM    7  C   LIG     1      17.524  32.528  12.636  1.00  0.00     0.012 A 
HETATM    8  C   LIG     1      16.584  32.339  13.662  1.00  0.00    -0.025 A 
HETATM    9  C   LIG     1      15.676  31.282  13.571  1.00  0.00     0.024 A 
HETATM   10  C   LIG     1      14.766  31.034  14.598  1.00  0.00    -0.025 A 
HETATM   11  C   LIG     1      14.715  31.888  15.731  1.00  0.00    -0.019 A 
HETATM   12  C   LIG     1      13.798  31.575  16.763  1.00  0.00     0.013 A 
HETATM   13  C   LIG     1      12.948  30.472  16.656  1.00  0.00     0.001 A 
HETATM   14  C   LIG     1      12.995  29.655  15.529  1.00  0.00     0.001 A 
HETATM   15  C   LIG     1      13.900  29.930  14.505  1.00  0.00     0.012 A 
ENDROOT
TORSDOF 0
ENDMDL
