REMARK  0 active torsions:
REMARK  status: ('A' for Active; 'I' for Inactive)
ROOT
HETATM    1  C   LIG     1      -0.432   2.487   0.617  1.00  0.00     0.050 C 
HETATM    2  C   LIG     1      -0.166   1.027   0.293  1.00  0.00    -0.040 A 
HETATM    3  C   LIG     1       1.159   0.494   0.275  1.00  0.00    -0.019 A 
HETATM    4  C   LIG     1       2.280   1.214   0.757  1.00  0.00     0.013 A 
HETATM    5  C   LIG     1       3.564   0.670   0.692  1.00  0.00     0.001 A 
HETATM    6  C   LIG     1       3.764  -0.602   0.166  1.00  0.00     0.001 A 
HETATM    7  C   LIG     1       2.676  -1.351  -0.278  1.00  0.00     0.012 A 
HETATM    8  C   LIG     1       1.376  -0.823  -0.214  1.00  0.00    -0.025 A 
HETATM    9  C   LIG     1       0.298  -1.611  -0.621  1.00  0.00     0.024 A 
HETATM   10  C   LIG     1      -1.010  -1.137  -0.519  1.00  0.00    -0.025 A 
HETATM   11  C   LIG     1      -1.259   0.178  -0.047  1.00  0.00    -0.019 A 
HETATM   12  C   LIG     1      -2.605   0.602   0.071  1.00  0.00     0.013 A 
HETATM   13  C   LIG     1      -3.656  -0.243  -0.293  1.00  0.00     0.001 A 
HETATM   14  C   LIG     1      -3.395  -1.523  -0.774  1.00  0.00     0.001 A 
HETATM   15  C   LIG     1      -2.080  -1.972  -0.885  1.00  0.00     0.012 A 
ENDROOT
TORSDOF 0
