REMARK  0 active torsions:
REMARK  status: ('A' for Active; 'I' for Inactive)
ROOT
HETATM    1  C   LIG     1       1.116  -0.452   1.478  1.00  0.00     0.015 C 
HETATM    2  C   LIG     1       1.016  -0.107  -0.026  1.00  0.00    -0.037 C 
HETATM    3  C   LIG     1      -0.245  -0.768  -0.646  1.00  0.00     0.043 C 
HETATM    4  C   LIG     1      -1.541  -0.129  -0.187  1.00  0.00    -0.080 C 
HETATM    5  C   LIG     1      -2.813  -0.927  -0.225  1.00  0.00     0.043 C 
HETATM    6  C   LIG     1      -1.584   1.156   0.197  1.00  0.00     0.052 C 
HETATM    7  C   LIG     1      -0.369   1.985   0.235  1.00  0.00     0.150 C 
HETATM    8  O   LIG     1      -0.445   3.185   0.611  1.00  0.00    -0.293 OA
HETATM    9  C   LIG     1       0.948   1.428  -0.223  1.00  0.00     0.092 C 
HETATM   10  C   LIG     1       2.272  -0.651  -0.735  1.00  0.00     0.015 C 
ENDROOT
TORSDOF 0
