MODEL 1
REMARK VINA RESULT:      -6.4      0.000      0.000
REMARK  0 active torsions:
REMARK  status: ('A' for Active; 'I' for Inactive)
ROOT
HETATM    1  C   LIG     1      15.273  36.881  21.975  1.00  0.00     0.015 C 
HETATM    2  C   LIG     1      16.684  36.336  22.298  1.00  0.00    -0.037 C 
HETATM    3  C   LIG     1      17.738  36.990  21.364  1.00  0.00     0.043 C 
HETATM    4  C   LIG     1      17.989  38.452  21.678  1.00  0.00    -0.080 C 
HETATM    5  C   LIG     1      18.520  39.359  20.604  1.00  0.00     0.043 C 
HETATM    6  C   LIG     1      17.802  38.939  22.914  1.00  0.00     0.052 C 
HETATM    7  C   LIG     1      17.301  38.088  24.005  1.00  0.00     0.150 C 
HETATM    8  O   LIG     1      17.127  38.582  25.151  1.00  0.00    -0.293 OA
HETATM    9  C   LIG     1      17.048  36.626  23.776  1.00  0.00     0.092 C 
HETATM   10  C   LIG     1      16.682  34.812  22.069  1.00  0.00     0.015 C 
ENDROOT
TORSDOF 0
ENDMDL
MODEL 2
REMARK VINA RESULT:      -6.1      1.926      3.652
REMARK  0 active torsions:
REMARK  status: ('A' for Active; 'I' for Inactive)
ROOT
HETATM    1  C   LIG     1      16.110  38.913  22.681  1.00  0.00     0.015 C 
HETATM    2  C   LIG     1      17.522  38.324  22.455  1.00  0.00    -0.037 C 
HETATM    3  C   LIG     1      18.257  38.152  23.812  1.00  0.00     0.043 C 
HETATM    4  C   LIG     1      17.686  37.033  24.662  1.00  0.00    -0.080 C 
HETATM    5  C   LIG     1      17.875  37.066  26.151  1.00  0.00     0.043 C 
HETATM    6  C   LIG     1      17.066  35.983  24.102  1.00  0.00     0.052 C 
HETATM    7  C   LIG     1      16.872  35.895  22.646  1.00  0.00     0.150 C 
HETATM    8  O   LIG     1      16.276  34.899  22.156  1.00  0.00    -0.293 OA
HETATM    9  C   LIG     1      17.426  36.954  21.738  1.00  0.00     0.092 C 
HETATM   10  C   LIG     1      18.320  39.301  21.569  1.00  0.00     0.015 C 
ENDROOT
TORSDOF 0
ENDMDL
MODEL 3
REMARK VINA RESULT:      -6.1      2.437      4.147
REMARK  0 active torsions:
REMARK  status: ('A' for Active; 'I' for Inactive)
ROOT
HETATM    1  C   LIG     1      18.331  39.230  18.903  1.00  0.00     0.015 C 
HETATM    2  C   LIG     1      19.286  38.437  19.825  1.00  0.00    -0.037 C 
HETATM    3  C   LIG     1      19.103  38.885  21.301  1.00  0.00     0.043 C 
HETATM    4  C   LIG     1      17.788  38.431  21.904  1.00  0.00    -0.080 C 
HETATM    5  C   LIG     1      17.204  39.189  23.062  1.00  0.00     0.043 C 
HETATM    6  C   LIG     1      17.164  37.328  21.460  1.00  0.00     0.052 C 
HETATM    7  C   LIG     1      17.704  36.541  20.341  1.00  0.00     0.150 C 
HETATM    8  O   LIG     1      17.086  35.517  19.944  1.00  0.00    -0.293 OA
HETATM    9  C   LIG     1      19.012  36.917  19.706  1.00  0.00     0.092 C 
HETATM   10  C   LIG     1      20.736  38.724  19.387  1.00  0.00     0.015 C 
ENDROOT
TORSDOF 0
ENDMDL
MODEL 4
REMARK VINA RESULT:      -6.1      1.817      2.980
REMARK  0 active torsions:
REMARK  status: ('A' for Active; 'I' for Inactive)
ROOT
HETATM    1  C   LIG     1      17.900  36.094  21.279  1.00  0.00     0.015 C 
HETATM    2  C   LIG     1      16.585  35.634  21.949  1.00  0.00    -0.037 C 
HETATM    3  C   LIG     1      16.865  35.124  23.389  1.00  0.00     0.043 C 
HETATM    4  C   LIG     1      17.228  36.234  24.355  1.00  0.00    -0.080 C 
HETATM    5  C   LIG     1      18.034  35.913  25.581  1.00  0.00     0.043 C 
HETATM    6  C   LIG     1      16.792  37.489  24.167  1.00  0.00     0.052 C 
HETATM    7  C   LIG     1      15.985  37.851  22.991  1.00  0.00     0.150 C 
HETATM    8  O   LIG     1      15.601  39.041  22.841  1.00  0.00    -0.293 OA
HETATM    9  C   LIG     1      15.569  36.802  22.000  1.00  0.00     0.092 C 
HETATM   10  C   LIG     1      15.989  34.484  21.113  1.00  0.00     0.015 C 
ENDROOT
TORSDOF 0
ENDMDL
MODEL 5
REMARK VINA RESULT:      -6.0      1.976      3.449
REMARK  0 active torsions:
REMARK  status: ('A' for Active; 'I' for Inactive)
ROOT
HETATM    1  C   LIG     1      15.798  38.630  22.736  1.00  0.00     0.015 C 
HETATM    2  C   LIG     1      17.099  37.942  23.210  1.00  0.00    -0.037 C 
HETATM    3  C   LIG     1      17.000  36.406  23.004  1.00  0.00     0.043 C 
HETATM    4  C   LIG     1      17.053  35.994  21.546  1.00  0.00    -0.080 C 
HETATM    5  C   LIG     1      16.445  34.687  21.124  1.00  0.00     0.043 C 
HETATM    6  C   LIG     1      17.685  36.749  20.634  1.00  0.00     0.052 C 
HETATM    7  C   LIG     1      18.311  38.029  21.000  1.00  0.00     0.150 C 
HETATM    8  O   LIG     1      18.887  38.716  20.115  1.00  0.00    -0.293 OA
HETATM    9  C   LIG     1      18.317  38.493  22.427  1.00  0.00     0.092 C 
HETATM   10  C   LIG     1      17.288  38.239  24.711  1.00  0.00     0.015 C 
ENDROOT
TORSDOF 0
ENDMDL
MODEL 6
REMARK VINA RESULT:      -6.0      2.325      3.164
REMARK  0 active torsions:
REMARK  status: ('A' for Active; 'I' for Inactive)
ROOT
HETATM    1  C   LIG     1      17.146  34.895  22.618  1.00  0.00     0.015 C 
HETATM    2  C   LIG     1      16.244  35.632  21.601  1.00  0.00    -0.037 C 
HETATM    3  C   LIG     1      15.917  37.062  22.110  1.00  0.00     0.043 C 
HETATM    4  C   LIG     1      17.109  37.998  22.066  1.00  0.00    -0.080 C 
HETATM    5  C   LIG     1      17.148  39.188  22.981  1.00  0.00     0.043 C 
HETATM    6  C   LIG     1      18.102  37.818  21.182  1.00  0.00     0.052 C 
HETATM    7  C   LIG     1      18.102  36.677  20.252  1.00  0.00     0.150 C 
HETATM    8  O   LIG     1      19.056  36.533  19.443  1.00  0.00    -0.293 OA
HETATM    9  C   LIG     1      16.947  35.718  20.223  1.00  0.00     0.092 C 
HETATM   10  C   LIG     1      14.932  34.837  21.449  1.00  0.00     0.015 C 
ENDROOT
TORSDOF 0
ENDMDL
MODEL 7
REMARK VINA RESULT:      -5.5      1.432      3.285
REMARK  0 active torsions:
REMARK  status: ('A' for Active; 'I' for Inactive)
ROOT
HETATM    1  C   LIG     1      18.114  38.166  22.302  1.00  0.00     0.015 C 
HETATM    2  C   LIG     1      16.689  37.946  22.860  1.00  0.00    -0.037 C 
HETATM    3  C   LIG     1      15.945  36.870  22.024  1.00  0.00     0.043 C 
HETATM    4  C   LIG     1      16.484  35.469  22.237  1.00  0.00    -0.080 C 
HETATM    5  C   LIG     1      16.289  34.432  21.169  1.00  0.00     0.043 C 
HETATM    6  C   LIG     1      17.080  35.122  23.388  1.00  0.00     0.052 C 
HETATM    7  C   LIG     1      17.279  36.097  24.472  1.00  0.00     0.150 C 
HETATM    8  O   LIG     1      17.852  35.739  25.535  1.00  0.00    -0.293 OA
HETATM    9  C   LIG     1      16.755  37.499  24.342  1.00  0.00     0.092 C 
HETATM   10  C   LIG     1      15.920  39.279  22.770  1.00  0.00     0.015 C 
ENDROOT
TORSDOF 0
ENDMDL
MODEL 8
REMARK VINA RESULT:      -5.3      1.631      3.046
REMARK  0 active torsions:
REMARK  status: ('A' for Active; 'I' for Inactive)
ROOT
HETATM    1  C   LIG     1      17.345  35.770  22.075  1.00  0.00     0.015 C 
HETATM    2  C   LIG     1      16.445  36.930  22.561  1.00  0.00    -0.037 C 
HETATM    3  C   LIG     1      16.437  36.989  24.112  1.00  0.00     0.043 C 
HETATM    4  C   LIG     1      17.750  37.470  24.698  1.00  0.00    -0.080 C 
HETATM    5  C   LIG     1      18.117  37.087  26.104  1.00  0.00     0.043 C 
HETATM    6  C   LIG     1      18.565  38.280  24.005  1.00  0.00     0.052 C 
HETATM    7  C   LIG     1      18.242  38.698  22.632  1.00  0.00     0.150 C 
HETATM    8  O   LIG     1      19.035  39.452  22.007  1.00  0.00    -0.293 OA
HETATM    9  C   LIG     1      16.950  38.279  21.992  1.00  0.00     0.092 C 
HETATM   10  C   LIG     1      15.010  36.676  22.058  1.00  0.00     0.015 C 
ENDROOT
TORSDOF 0
ENDMDL
MODEL 9
REMARK VINA RESULT:      -4.7      7.902      9.664
REMARK  0 active torsions:
REMARK  status: ('A' for Active; 'I' for Inactive)
ROOT
HETATM    1  C   LIG     1      14.106  33.595  16.732  1.00  0.00     0.015 C 
HETATM    2  C   LIG     1      14.900  32.349  17.188  1.00  0.00    -0.037 C 
HETATM    3  C   LIG     1      14.087  31.058  16.897  1.00  0.00     0.043 C 
HETATM    4  C   LIG     1      13.994  30.731  15.419  1.00  0.00    -0.080 C 
HETATM    5  C   LIG     1      12.852  29.894  14.918  1.00  0.00     0.043 C 
HETATM    6  C   LIG     1      14.945  31.127  14.559  1.00  0.00     0.052 C 
HETATM    7  C   LIG     1      16.092  31.934  15.004  1.00  0.00     0.150 C 
HETATM    8  O   LIG     1      16.960  32.297  14.166  1.00  0.00    -0.293 OA
HETATM    9  C   LIG     1      16.263  32.281  16.454  1.00  0.00     0.092 C 
HETATM   10  C   LIG     1      15.149  32.458  18.705  1.00  0.00     0.015 C 
ENDROOT
TORSDOF 0
ENDMDL
MODEL 10
REMARK VINA RESULT:      -4.3      8.221      9.839
REMARK  0 active torsions:
REMARK  status: ('A' for Active; 'I' for Inactive)
ROOT
HETATM    1  C   LIG     1      17.599  31.690  15.627  1.00  0.00     0.015 C 
HETATM    2  C   LIG     1      16.526  32.538  14.904  1.00  0.00    -0.037 C 
HETATM    3  C   LIG     1      15.676  31.640  13.964  1.00  0.00     0.043 C 
HETATM    4  C   LIG     1      14.750  30.701  14.711  1.00  0.00    -0.080 C 
HETATM    5  C   LIG     1      14.284  29.438  14.046  1.00  0.00     0.043 C 
HETATM    6  C   LIG     1      14.289  31.007  15.934  1.00  0.00     0.052 C 
HETATM    7  C   LIG     1      14.701  32.241  16.621  1.00  0.00     0.150 C 
HETATM    8  O   LIG     1      14.257  32.491  17.773  1.00  0.00    -0.293 OA
HETATM    9  C   LIG     1      15.602  33.230  15.937  1.00  0.00     0.092 C 
HETATM   10  C   LIG     1      17.240  33.615  14.065  1.00  0.00     0.015 C 
ENDROOT
TORSDOF 0
ENDMDL
MODEL 11
REMARK VINA RESULT:      -4.2      9.031     10.583
REMARK  0 active torsions:
REMARK  status: ('A' for Active; 'I' for Inactive)
ROOT
HETATM    1  C   LIG     1      15.885  29.207  14.867  1.00  0.00     0.015 C 
HETATM    2  C   LIG     1      14.747  30.150  14.410  1.00  0.00    -0.037 C 
HETATM    3  C   LIG     1      14.238  30.997  15.607  1.00  0.00     0.043 C 
HETATM    4  C   LIG     1      15.230  32.052  16.057  1.00  0.00    -0.080 C 
HETATM    5  C   LIG     1      15.172  32.569  17.466  1.00  0.00     0.043 C 
HETATM    6  C   LIG     1      16.122  32.576  15.202  1.00  0.00     0.052 C 
HETATM    7  C   LIG     1      16.207  32.116  13.807  1.00  0.00     0.150 C 
HETATM    8  O   LIG     1      17.064  32.624  13.035  1.00  0.00    -0.293 OA
HETATM    9  C   LIG     1      15.245  31.089  13.283  1.00  0.00     0.092 C 
HETATM   10  C   LIG     1      13.588  29.288  13.872  1.00  0.00     0.015 C 
ENDROOT
TORSDOF 0
ENDMDL
MODEL 12
REMARK VINA RESULT:      -4.1      6.747      8.386
REMARK  0 active torsions:
REMARK  status: ('A' for Active; 'I' for Inactive)
ROOT
HETATM    1  C   LIG     1      15.055  30.887  15.780  1.00  0.00     0.015 C 
HETATM    2  C   LIG     1      13.835  31.431  16.560  1.00  0.00    -0.037 C 
HETATM    3  C   LIG     1      14.005  31.160  18.079  1.00  0.00     0.043 C 
HETATM    4  C   LIG     1      15.077  32.018  18.723  1.00  0.00    -0.080 C 
HETATM    5  C   LIG     1      15.745  31.545  19.982  1.00  0.00     0.043 C 
HETATM    6  C   LIG     1      15.398  33.220  18.221  1.00  0.00     0.052 C 
HETATM    7  C   LIG     1      14.760  33.736  17.000  1.00  0.00     0.150 C 
HETATM    8  O   LIG     1      15.094  34.865  16.551  1.00  0.00    -0.293 OA
HETATM    9  C   LIG     1      13.676  32.952  16.317  1.00  0.00     0.092 C 
HETATM   10  C   LIG     1      12.572  30.705  16.055  1.00  0.00     0.015 C 
ENDROOT
TORSDOF 0
ENDMDL
MODEL 13
REMARK VINA RESULT:      -4.1     18.608     20.094
REMARK  0 active torsions:
REMARK  status: ('A' for Active; 'I' for Inactive)
ROOT
HETATM    1  C   LIG     1      22.881  21.332  34.348  1.00  0.00     0.015 C 
HETATM    2  C   LIG     1      22.365  22.585  35.093  1.00  0.00    -0.037 C 
HETATM    3  C   LIG     1      21.537  23.479  34.131  1.00  0.00     0.043 C 
HETATM    4  C   LIG     1      20.197  22.876  33.759  1.00  0.00    -0.080 C 
HETATM    5  C   LIG     1      19.529  23.289  32.479  1.00  0.00     0.043 C 
HETATM    6  C   LIG     1      19.567  22.024  34.582  1.00  0.00     0.052 C 
HETATM    7  C   LIG     1      20.171  21.601  35.856  1.00  0.00     0.150 C 
HETATM    8  O   LIG     1      19.555  20.791  36.599  1.00  0.00    -0.293 OA
HETATM    9  C   LIG     1      21.487  22.170  36.301  1.00  0.00     0.092 C 
HETATM   10  C   LIG     1      23.581  23.383  35.604  1.00  0.00     0.015 C 
ENDROOT
TORSDOF 0
ENDMDL
MODEL 14
REMARK VINA RESULT:      -4.0     15.738     17.244
REMARK  0 active torsions:
REMARK  status: ('A' for Active; 'I' for Inactive)
ROOT
HETATM    1  C   LIG     1      22.080  22.853  21.277  1.00  0.00     0.015 C 
HETATM    2  C   LIG     1      23.217  21.820  21.453  1.00  0.00    -0.037 C 
HETATM    3  C   LIG     1      23.069  20.676  20.413  1.00  0.00     0.043 C 
HETATM    4  C   LIG     1      23.385  21.112  18.996  1.00  0.00    -0.080 C 
HETATM    5  C   LIG     1      22.796  20.355  17.840  1.00  0.00     0.043 C 
HETATM    6  C   LIG     1      24.230  22.127  18.754  1.00  0.00     0.052 C 
HETATM    7  C   LIG     1      24.847  22.888  19.851  1.00  0.00     0.150 C 
HETATM    8  O   LIG     1      25.627  23.841  19.586  1.00  0.00    -0.293 OA
HETATM    9  C   LIG     1      24.597  22.503  21.281  1.00  0.00     0.092 C 
HETATM   10  C   LIG     1      23.121  21.228  22.873  1.00  0.00     0.015 C 
ENDROOT
TORSDOF 0
ENDMDL
MODEL 15
REMARK VINA RESULT:      -3.7      9.512     10.765
REMARK  0 active torsions:
REMARK  status: ('A' for Active; 'I' for Inactive)
ROOT
HETATM    1  C   LIG     1      15.663  32.453  13.648  1.00  0.00     0.015 C 
HETATM    2  C   LIG     1      16.096  31.695  14.924  1.00  0.00    -0.037 C 
HETATM    3  C   LIG     1      15.149  32.044  16.103  1.00  0.00     0.043 C 
HETATM    4  C   LIG     1      13.763  31.447  15.953  1.00  0.00    -0.080 C 
HETATM    5  C   LIG     1      12.601  32.089  16.656  1.00  0.00     0.043 C 
HETATM    6  C   LIG     1      13.564  30.322  15.250  1.00  0.00     0.052 C 
HETATM    7  C   LIG     1      14.672  29.646  14.557  1.00  0.00     0.150 C 
HETATM    8  O   LIG     1      14.446  28.596  13.897  1.00  0.00    -0.293 OA
HETATM    9  C   LIG     1      16.075  30.166  14.675  1.00  0.00     0.092 C 
HETATM   10  C   LIG     1      17.532  32.127  15.284  1.00  0.00     0.015 C 
ENDROOT
TORSDOF 0
ENDMDL
MODEL 16
REMARK VINA RESULT:      -3.7     19.195     20.659
REMARK  0 active torsions:
REMARK  status: ('A' for Active; 'I' for Inactive)
ROOT
HETATM    1  C   LIG     1      19.851  21.236  36.010  1.00  0.00     0.015 C 
HETATM    2  C   LIG     1      20.331  22.492  35.246  1.00  0.00    -0.037 C 
HETATM    3  C   LIG     1      21.009  23.489  36.223  1.00  0.00     0.043 C 
HETATM    4  C   LIG     1      22.356  23.009  36.727  1.00  0.00    -0.080 C 
HETATM    5  C   LIG     1      22.886  23.530  38.032  1.00  0.00     0.043 C 
HETATM    6  C   LIG     1      23.112  22.173  35.998  1.00  0.00     0.052 C 
HETATM    7  C   LIG     1      22.646  21.649  34.705  1.00  0.00     0.150 C 
HETATM    8  O   LIG     1      23.378  20.858  34.053  1.00  0.00    -0.293 OA
HETATM    9  C   LIG     1      21.331  22.094  34.132  1.00  0.00     0.092 C 
HETATM   10  C   LIG     1      19.104  23.169  34.603  1.00  0.00     0.015 C 
ENDROOT
TORSDOF 0
ENDMDL
MODEL 17
REMARK VINA RESULT:      -3.7     18.763     20.223
REMARK  0 active torsions:
REMARK  status: ('A' for Active; 'I' for Inactive)
ROOT
HETATM    1  C   LIG     1      21.058  20.052  34.670  1.00  0.00     0.015 C 
HETATM    2  C   LIG     1      20.409  21.129  35.569  1.00  0.00    -0.037 C 
HETATM    3  C   LIG     1      21.505  22.000  36.242  1.00  0.00     0.043 C 
HETATM    4  C   LIG     1      22.215  22.922  35.270  1.00  0.00    -0.080 C 
HETATM    5  C   LIG     1      23.600  23.407  35.588  1.00  0.00     0.043 C 
HETATM    6  C   LIG     1      21.605  23.362  34.158  1.00  0.00     0.052 C 
HETATM    7  C   LIG     1      20.242  22.930  33.811  1.00  0.00     0.150 C 
HETATM    8  O   LIG     1      19.705  23.355  32.753  1.00  0.00    -0.293 OA
HETATM    9  C   LIG     1      19.469  22.033  34.733  1.00  0.00     0.092 C 
HETATM   10  C   LIG     1      19.585  20.420  36.662  1.00  0.00     0.015 C 
ENDROOT
TORSDOF 0
ENDMDL
MODEL 18
REMARK VINA RESULT:      -3.6     17.384     18.503
REMARK  0 active torsions:
REMARK  status: ('A' for Active; 'I' for Inactive)
ROOT
HETATM    1  C   LIG     1      28.105  30.548  35.152  1.00  0.00     0.015 C 
HETATM    2  C   LIG     1      26.689  30.063  35.541  1.00  0.00    -0.037 C 
HETATM    3  C   LIG     1      26.036  29.305  34.353  1.00  0.00     0.043 C 
HETATM    4  C   LIG     1      26.667  27.952  34.088  1.00  0.00    -0.080 C 
HETATM    5  C   LIG     1      26.564  27.343  32.719  1.00  0.00     0.043 C 
HETATM    6  C   LIG     1      27.265  27.261  35.070  1.00  0.00     0.052 C 
HETATM    7  C   LIG     1      27.377  27.806  36.432  1.00  0.00     0.150 C 
HETATM    8  O   LIG     1      27.954  27.133  37.327  1.00  0.00    -0.293 OA
HETATM    9  C   LIG     1      26.759  29.131  36.776  1.00  0.00     0.092 C 
HETATM   10  C   LIG     1      25.831  31.295  35.887  1.00  0.00     0.015 C 
ENDROOT
TORSDOF 0
ENDMDL
MODEL 19
REMARK VINA RESULT:      -3.6     18.927     20.517
REMARK  0 active torsions:
REMARK  status: ('A' for Active; 'I' for Inactive)
ROOT
HETATM    1  C   LIG     1      21.317  21.181  33.193  1.00  0.00     0.015 C 
HETATM    2  C   LIG     1      20.543  22.318  33.899  1.00  0.00    -0.037 C 
HETATM    3  C   LIG     1      19.563  21.729  34.950  1.00  0.00     0.043 C 
HETATM    4  C   LIG     1      20.265  21.154  36.164  1.00  0.00    -0.080 C 
HETATM    5  C   LIG     1      19.579  20.098  36.984  1.00  0.00     0.043 C 
HETATM    6  C   LIG     1      21.464  21.612  36.556  1.00  0.00     0.052 C 
HETATM    7  C   LIG     1      22.169  22.658  35.797  1.00  0.00     0.150 C 
HETATM    8  O   LIG     1      23.298  23.057  36.189  1.00  0.00    -0.293 OA
HETATM    9  C   LIG     1      21.529  23.289  34.595  1.00  0.00     0.092 C 
HETATM   10  C   LIG     1      19.739  23.092  32.836  1.00  0.00     0.015 C 
ENDROOT
TORSDOF 0
ENDMDL
MODEL 20
REMARK VINA RESULT:      -3.5     16.280     17.369
REMARK  0 active torsions:
REMARK  status: ('A' for Active; 'I' for Inactive)
ROOT
HETATM    1  C   LIG     1      26.577  21.824  19.460  1.00  0.00     0.015 C 
HETATM    2  C   LIG     1      25.572  22.959  19.157  1.00  0.00    -0.037 C 
HETATM    3  C   LIG     1      24.454  22.447  18.209  1.00  0.00     0.043 C 
HETATM    4  C   LIG     1      23.498  21.481  18.880  1.00  0.00    -0.080 C 
HETATM    5  C   LIG     1      22.731  20.498  18.042  1.00  0.00     0.043 C 
HETATM    6  C   LIG     1      23.279  21.526  20.203  1.00  0.00     0.052 C 
HETATM    7  C   LIG     1      23.992  22.482  21.065  1.00  0.00     0.150 C 
HETATM    8  O   LIG     1      23.769  22.489  22.305  1.00  0.00    -0.293 OA
HETATM    9  C   LIG     1      24.940  23.483  20.471  1.00  0.00     0.092 C 
HETATM   10  C   LIG     1      26.331  24.111  18.469  1.00  0.00     0.015 C 
ENDROOT
TORSDOF 0
ENDMDL
