REMARK  5 active torsions:
REMARK  status: ('A' for Active; 'I' for Inactive)
REMARK    1  A    between atoms: C_4  and  C_5 
REMARK    2  A    between atoms: C_5  and  C_6 
REMARK    3  A    between atoms: C_6  and  C_7 
REMARK    4  A    between atoms: C_7  and  C_10 
REMARK    5  A    between atoms: C_7  and  O_9 
ROOT
HETATM    1  C   LIG     1       0.839   0.584  -1.415  1.00  0.00     0.045 C 
ENDROOT
BRANCH   1   2
HETATM    2  C   LIG     1      -0.436   0.886  -0.594  1.00  0.00     0.030 C 
BRANCH   2   3
HETATM    3  C   LIG     1      -1.402  -0.277  -0.568  1.00  0.00    -0.025 C 
HETATM    4  C   LIG     1      -2.562  -0.256   0.122  1.00  0.00    -0.091 C 
HETATM    5  C   LIG     1      -3.452  -1.471   0.078  1.00  0.00     0.042 C 
HETATM    6  C   LIG     1      -2.981   0.950   0.929  1.00  0.00     0.042 C 
ENDBRANCH   2   3
ENDBRANCH   1   2
BRANCH   1   7
HETATM    7  C   LIG     1       2.011  -0.067  -0.620  1.00  0.00     0.071 C 
HETATM    8  C   LIG     1       1.556  -1.369   0.063  1.00  0.00     0.050 C 
BRANCH   7   9
HETATM    9  C   LIG     1       2.559   0.901   0.421  1.00  0.00    -0.000 C 
HETATM   10  C   LIG     1       3.644   0.624   1.154  1.00  0.00     0.010 C 
ENDBRANCH   7   9
BRANCH   7  11
HETATM   11  O   LIG     1       3.037  -0.402  -1.527  1.00  0.00    -0.386 OA
HETATM   12  H   LIG     1       3.359   0.438  -1.950  1.00  0.00     0.211 HD
ENDBRANCH   7  11
ENDBRANCH   1   7
TORSDOF 5
