MODEL 1
REMARK VINA RESULT:      -4.3      0.000      0.000
REMARK  1 active torsions:
REMARK  status: ('A' for Active; 'I' for Inactive)
REMARK    1  A    between atoms: C_2  and  C_3 
ROOT
HETATM    1  C   LIG     1      18.391  34.778  26.438  1.00  0.00     0.018 C 
HETATM    2  C   LIG     1      17.838  35.658  25.597  1.00  0.00    -0.072 C 
HETATM    3  C   LIG     1      17.179  35.172  24.331  1.00  0.00     0.047 C 
ENDROOT
BRANCH   2   4
HETATM    4  C   LIG     1      17.886  37.103  25.934  1.00  0.00    -0.004 C 
HETATM    5  C   LIG     1      17.304  38.049  25.196  1.00  0.00     0.011 C 
ENDBRANCH   2   4
TORSDOF 1
ENDMDL
MODEL 2
REMARK VINA RESULT:      -4.1      0.886      2.287
REMARK  1 active torsions:
REMARK  status: ('A' for Active; 'I' for Inactive)
REMARK    1  A    between atoms: C_2  and  C_3 
ROOT
HETATM    1  C   LIG     1      18.563  36.215  26.840  1.00  0.00     0.018 C 
HETATM    2  C   LIG     1      17.785  36.320  25.758  1.00  0.00    -0.072 C 
HETATM    3  C   LIG     1      17.298  37.676  25.314  1.00  0.00     0.047 C 
ENDROOT
BRANCH   2   4
HETATM    4  C   LIG     1      17.417  35.089  25.014  1.00  0.00    -0.004 C 
HETATM    5  C   LIG     1      17.113  35.078  23.716  1.00  0.00     0.011 C 
ENDBRANCH   2   4
TORSDOF 1
ENDMDL
MODEL 3
REMARK VINA RESULT:      -4.1      1.154      2.513
REMARK  1 active torsions:
REMARK  status: ('A' for Active; 'I' for Inactive)
REMARK    1  A    between atoms: C_2  and  C_3 
ROOT
HETATM    1  C   LIG     1      17.573  37.605  25.753  1.00  0.00     0.018 C 
HETATM    2  C   LIG     1      17.336  36.638  24.861  1.00  0.00    -0.072 C 
HETATM    3  C   LIG     1      16.902  36.998  23.463  1.00  0.00     0.047 C 
ENDROOT
BRANCH   2   4
HETATM    4  C   LIG     1      17.507  35.222  25.272  1.00  0.00    -0.004 C 
HETATM    5  C   LIG     1      18.243  34.844  26.318  1.00  0.00     0.011 C 
ENDBRANCH   2   4
TORSDOF 1
ENDMDL
MODEL 4
REMARK VINA RESULT:      -4.0      1.022      1.683
REMARK  1 active torsions:
REMARK  status: ('A' for Active; 'I' for Inactive)
REMARK    1  A    between atoms: C_2  and  C_3 
ROOT
HETATM    1  C   LIG     1      17.393  34.787  25.258  1.00  0.00     0.018 C 
HETATM    2  C   LIG     1      17.649  36.058  25.586  1.00  0.00    -0.072 C 
HETATM    3  C   LIG     1      18.509  36.364  26.785  1.00  0.00     0.047 C 
ENDROOT
BRANCH   2   4
HETATM    4  C   LIG     1      17.076  37.145  24.753  1.00  0.00    -0.004 C 
HETATM    5  C   LIG     1      17.490  38.411  24.811  1.00  0.00     0.011 C 
ENDBRANCH   2   4
TORSDOF 1
ENDMDL
MODEL 5
REMARK VINA RESULT:      -3.9      5.212      6.012
REMARK  1 active torsions:
REMARK  status: ('A' for Active; 'I' for Inactive)
REMARK    1  A    between atoms: C_2  and  C_3 
ROOT
HETATM    1  C   LIG     1      20.388  38.853  19.358  1.00  0.00     0.018 C 
HETATM    2  C   LIG     1      19.321  38.371  20.003  1.00  0.00    -0.072 C 
HETATM    3  C   LIG     1      18.840  36.971  19.717  1.00  0.00     0.047 C 
ENDROOT
BRANCH   2   4
HETATM    4  C   LIG     1      18.629  39.234  20.994  1.00  0.00    -0.004 C 
HETATM    5  C   LIG     1      17.640  38.805  21.779  1.00  0.00     0.011 C 
ENDBRANCH   2   4
TORSDOF 1
ENDMDL
MODEL 6
REMARK VINA RESULT:      -3.9     12.235     12.547
REMARK  1 active torsions:
REMARK  status: ('A' for Active; 'I' for Inactive)
REMARK    1  A    between atoms: C_2  and  C_3 
ROOT
HETATM    1  C   LIG     1      14.735  45.975  32.822  1.00  0.00     0.018 C 
HETATM    2  C   LIG     1      15.776  45.376  33.409  1.00  0.00    -0.072 C 
HETATM    3  C   LIG     1      17.180  45.772  33.028  1.00  0.00     0.047 C 
ENDROOT
BRANCH   2   4
HETATM    4  C   LIG     1      15.522  44.327  34.428  1.00  0.00    -0.004 C 
HETATM    5  C   LIG     1      16.492  43.681  35.075  1.00  0.00     0.011 C 
ENDBRANCH   2   4
TORSDOF 1
ENDMDL
MODEL 7
REMARK VINA RESULT:      -3.7      4.530      5.655
REMARK  1 active torsions:
REMARK  status: ('A' for Active; 'I' for Inactive)
REMARK    1  A    between atoms: C_2  and  C_3 
ROOT
HETATM    1  C   LIG     1      19.108  37.016  19.492  1.00  0.00     0.018 C 
HETATM    2  C   LIG     1      18.562  37.783  20.442  1.00  0.00    -0.072 C 
HETATM    3  C   LIG     1      18.994  39.220  20.584  1.00  0.00     0.047 C 
ENDROOT
BRANCH   2   4
HETATM    4  C   LIG     1      17.537  37.195  21.340  1.00  0.00    -0.004 C 
HETATM    5  C   LIG     1      17.206  35.903  21.331  1.00  0.00     0.011 C 
ENDBRANCH   2   4
TORSDOF 1
ENDMDL
MODEL 8
REMARK VINA RESULT:      -3.7      4.285      5.492
REMARK  1 active torsions:
REMARK  status: ('A' for Active; 'I' for Inactive)
REMARK    1  A    between atoms: C_2  and  C_3 
ROOT
HETATM    1  C   LIG     1      18.557  39.296  21.129  1.00  0.00     0.018 C 
HETATM    2  C   LIG     1      17.957  38.126  21.370  1.00  0.00    -0.072 C 
HETATM    3  C   LIG     1      17.030  37.989  22.551  1.00  0.00     0.047 C 
ENDROOT
BRANCH   2   4
HETATM    4  C   LIG     1      18.221  36.981  20.462  1.00  0.00    -0.004 C 
HETATM    5  C   LIG     1      19.126  37.013  19.484  1.00  0.00     0.011 C 
ENDBRANCH   2   4
TORSDOF 1
ENDMDL
MODEL 9
REMARK VINA RESULT:      -3.7      4.291      5.311
REMARK  1 active torsions:
REMARK  status: ('A' for Active; 'I' for Inactive)
REMARK    1  A    between atoms: C_2  and  C_3 
ROOT
HETATM    1  C   LIG     1      17.746  37.197  21.138  1.00  0.00     0.018 C 
HETATM    2  C   LIG     1      17.828  38.469  21.543  1.00  0.00    -0.072 C 
HETATM    3  C   LIG     1      16.928  38.964  22.646  1.00  0.00     0.047 C 
ENDROOT
BRANCH   2   4
HETATM    4  C   LIG     1      18.811  39.369  20.889  1.00  0.00    -0.004 C 
HETATM    5  C   LIG     1      19.716  38.951  20.004  1.00  0.00     0.011 C 
ENDBRANCH   2   4
TORSDOF 1
ENDMDL
MODEL 10
REMARK VINA RESULT:      -3.6     12.250     12.322
REMARK  1 active torsions:
REMARK  status: ('A' for Active; 'I' for Inactive)
REMARK    1  A    between atoms: C_2  and  C_3 
ROOT
HETATM    1  C   LIG     1      15.530  44.009  34.686  1.00  0.00     0.018 C 
HETATM    2  C   LIG     1      16.027  44.948  33.875  1.00  0.00    -0.072 C 
HETATM    3  C   LIG     1      15.101  45.733  32.981  1.00  0.00     0.047 C 
ENDROOT
BRANCH   2   4
HETATM    4  C   LIG     1      17.491  45.196  33.874  1.00  0.00    -0.004 C 
HETATM    5  C   LIG     1      18.129  45.825  32.887  1.00  0.00     0.011 C 
ENDBRANCH   2   4
TORSDOF 1
ENDMDL
MODEL 11
REMARK VINA RESULT:      -3.5     11.823     12.999
REMARK  1 active torsions:
REMARK  status: ('A' for Active; 'I' for Inactive)
REMARK    1  A    between atoms: C_2  and  C_3 
ROOT
HETATM    1  C   LIG     1      15.427  31.018  14.106  1.00  0.00     0.018 C 
HETATM    2  C   LIG     1      14.696  29.917  14.308  1.00  0.00    -0.072 C 
HETATM    3  C   LIG     1      15.205  28.582  13.827  1.00  0.00     0.047 C 
ENDROOT
BRANCH   2   4
HETATM    4  C   LIG     1      13.392  30.037  15.006  1.00  0.00    -0.004 C 
HETATM    5  C   LIG     1      13.209  30.774  16.102  1.00  0.00     0.011 C 
ENDBRANCH   2   4
TORSDOF 1
ENDMDL
MODEL 12
REMARK VINA RESULT:      -3.5      3.297      4.425
REMARK  1 active torsions:
REMARK  status: ('A' for Active; 'I' for Inactive)
REMARK    1  A    between atoms: C_2  and  C_3 
ROOT
HETATM    1  C   LIG     1      16.989  35.235  22.801  1.00  0.00     0.018 C 
HETATM    2  C   LIG     1      16.974  36.307  22.002  1.00  0.00    -0.072 C 
HETATM    3  C   LIG     1      16.507  37.636  22.539  1.00  0.00     0.047 C 
ENDROOT
BRANCH   2   4
HETATM    4  C   LIG     1      17.420  36.160  20.594  1.00  0.00    -0.004 C 
HETATM    5  C   LIG     1      18.478  36.796  20.088  1.00  0.00     0.011 C 
ENDBRANCH   2   4
TORSDOF 1
ENDMDL
MODEL 13
REMARK VINA RESULT:      -3.5      3.462      4.629
REMARK  1 active torsions:
REMARK  status: ('A' for Active; 'I' for Inactive)
REMARK    1  A    between atoms: C_2  and  C_3 
ROOT
HETATM    1  C   LIG     1      16.197  37.910  22.842  1.00  0.00     0.018 C 
HETATM    2  C   LIG     1      17.148  37.660  21.937  1.00  0.00    -0.072 C 
HETATM    3  C   LIG     1      18.080  38.764  21.506  1.00  0.00     0.047 C 
ENDROOT
BRANCH   2   4
HETATM    4  C   LIG     1      17.263  36.292  21.373  1.00  0.00    -0.004 C 
HETATM    5  C   LIG     1      16.967  35.187  22.059  1.00  0.00     0.011 C 
ENDBRANCH   2   4
TORSDOF 1
ENDMDL
MODEL 14
REMARK VINA RESULT:      -3.5     12.216     12.378
REMARK  1 active torsions:
REMARK  status: ('A' for Active; 'I' for Inactive)
REMARK    1  A    between atoms: C_2  and  C_3 
ROOT
HETATM    1  C   LIG     1      17.420  45.306  33.522  1.00  0.00     0.018 C 
HETATM    2  C   LIG     1      16.384  44.673  34.081  1.00  0.00    -0.072 C 
HETATM    3  C   LIG     1      16.626  43.645  35.158  1.00  0.00     0.047 C 
ENDROOT
BRANCH   2   4
HETATM    4  C   LIG     1      15.010  44.999  33.625  1.00  0.00    -0.004 C 
HETATM    5  C   LIG     1      14.719  46.057  32.868  1.00  0.00     0.011 C 
ENDBRANCH   2   4
TORSDOF 1
ENDMDL
MODEL 15
REMARK VINA RESULT:      -3.5      2.624      3.788
REMARK  1 active torsions:
REMARK  status: ('A' for Active; 'I' for Inactive)
REMARK    1  A    between atoms: C_2  and  C_3 
ROOT
HETATM    1  C   LIG     1      16.818  36.579  22.815  1.00  0.00     0.018 C 
HETATM    2  C   LIG     1      17.199  37.805  23.186  1.00  0.00    -0.072 C 
HETATM    3  C   LIG     1      17.514  38.087  24.633  1.00  0.00     0.047 C 
ENDROOT
BRANCH   2   4
HETATM    4  C   LIG     1      17.303  38.868  22.155  1.00  0.00    -0.004 C 
HETATM    5  C   LIG     1      18.458  39.255  21.612  1.00  0.00     0.011 C 
ENDBRANCH   2   4
TORSDOF 1
ENDMDL
MODEL 16
REMARK VINA RESULT:      -3.5      2.751      3.977
REMARK  1 active torsions:
REMARK  status: ('A' for Active; 'I' for Inactive)
REMARK    1  A    between atoms: C_2  and  C_3 
ROOT
HETATM    1  C   LIG     1      17.239  36.922  21.512  1.00  0.00     0.018 C 
HETATM    2  C   LIG     1      17.504  38.014  22.235  1.00  0.00    -0.072 C 
HETATM    3  C   LIG     1      18.274  39.154  21.617  1.00  0.00     0.047 C 
ENDROOT
BRANCH   2   4
HETATM    4  C   LIG     1      17.029  38.079  23.640  1.00  0.00    -0.004 C 
HETATM    5  C   LIG     1      17.845  38.033  24.694  1.00  0.00     0.011 C 
ENDBRANCH   2   4
TORSDOF 1
ENDMDL
MODEL 17
REMARK VINA RESULT:      -3.4     10.537     12.249
REMARK  1 active torsions:
REMARK  status: ('A' for Active; 'I' for Inactive)
REMARK    1  A    between atoms: C_2  and  C_3 
ROOT
HETATM    1  C   LIG     1      12.925  30.662  16.065  1.00  0.00     0.018 C 
HETATM    2  C   LIG     1      14.177  30.938  15.685  1.00  0.00    -0.072 C 
HETATM    3  C   LIG     1      14.910  32.100  16.307  1.00  0.00     0.047 C 
ENDROOT
BRANCH   2   4
HETATM    4  C   LIG     1      14.820  30.086  14.653  1.00  0.00    -0.004 C 
HETATM    5  C   LIG     1      15.287  30.559  13.497  1.00  0.00     0.011 C 
ENDBRANCH   2   4
TORSDOF 1
ENDMDL
MODEL 18
REMARK VINA RESULT:      -3.4     11.918     12.522
REMARK  1 active torsions:
REMARK  status: ('A' for Active; 'I' for Inactive)
REMARK    1  A    between atoms: C_2  and  C_3 
ROOT
HETATM    1  C   LIG     1      14.706  29.427  14.119  1.00  0.00     0.018 C 
HETATM    2  C   LIG     1      14.565  30.517  14.880  1.00  0.00    -0.072 C 
HETATM    3  C   LIG     1      13.375  30.642  15.798  1.00  0.00     0.047 C 
ENDROOT
BRANCH   2   4
HETATM    4  C   LIG     1      15.592  31.586  14.802  1.00  0.00    -0.004 C 
HETATM    5  C   LIG     1      16.064  32.069  13.652  1.00  0.00     0.011 C 
ENDBRANCH   2   4
TORSDOF 1
ENDMDL
MODEL 19
REMARK VINA RESULT:      -3.4     11.505     12.802
REMARK  1 active torsions:
REMARK  status: ('A' for Active; 'I' for Inactive)
REMARK    1  A    between atoms: C_2  and  C_3 
ROOT
HETATM    1  C   LIG     1      15.312  30.208  13.642  1.00  0.00     0.018 C 
HETATM    2  C   LIG     1      14.285  30.044  14.481  1.00  0.00    -0.072 C 
HETATM    3  C   LIG     1      13.252  28.982  14.202  1.00  0.00     0.047 C 
ENDROOT
BRANCH   2   4
HETATM    4  C   LIG     1      14.185  30.919  15.676  1.00  0.00    -0.004 C 
HETATM    5  C   LIG     1      13.088  31.013  16.429  1.00  0.00     0.011 C 
ENDBRANCH   2   4
TORSDOF 1
ENDMDL
MODEL 20
REMARK VINA RESULT:      -3.3      2.236      3.368
REMARK  1 active torsions:
REMARK  status: ('A' for Active; 'I' for Inactive)
REMARK    1  A    between atoms: C_2  and  C_3 
ROOT
HETATM    1  C   LIG     1      16.612  34.869  21.492  1.00  0.00     0.018 C 
HETATM    2  C   LIG     1      16.853  35.684  22.524  1.00  0.00    -0.072 C 
HETATM    3  C   LIG     1      17.150  35.105  23.884  1.00  0.00     0.047 C 
ENDROOT
BRANCH   2   4
HETATM    4  C   LIG     1      16.821  37.152  22.303  1.00  0.00    -0.004 C 
HETATM    5  C   LIG     1      17.341  38.035  23.157  1.00  0.00     0.011 C 
ENDBRANCH   2   4
TORSDOF 1
ENDMDL
