MODEL 1
REMARK VINA RESULT:      -3.7      0.000      0.000
REMARK  1 active torsions:
REMARK  status: ('A' for Active; 'I' for Inactive)
REMARK    1  A    between atoms: C_2  and  C_4 
ROOT
HETATM    1  C   LIG     1      18.335  36.280  26.894  1.00  0.00     0.010 C 
HETATM    2  C   LIG     1      18.004  36.345  25.398  1.00  0.00    -0.013 C 
HETATM    3  C   LIG     1      17.308  35.050  24.957  1.00  0.00     0.010 C 
ENDROOT
BRANCH   2   4
HETATM    4  C   LIG     1      17.134  37.579  25.098  1.00  0.00     0.089 C 
HETATM    5 BR   LIG     1      17.013  37.924  23.191  1.00  0.00    -0.096 Br
ENDBRANCH   2   4
TORSDOF 1
ENDMDL
MODEL 2
REMARK VINA RESULT:      -3.6      2.575      3.523
REMARK  1 active torsions:
REMARK  status: ('A' for Active; 'I' for Inactive)
REMARK    1  A    between atoms: C_2  and  C_4 
ROOT
HETATM    1  C   LIG     1      15.799  37.769  22.922  1.00  0.00     0.010 C 
HETATM    2  C   LIG     1      17.253  37.802  23.408  1.00  0.00    -0.013 C 
HETATM    3  C   LIG     1      18.069  38.785  22.556  1.00  0.00     0.010 C 
ENDROOT
BRANCH   2   4
HETATM    4  C   LIG     1      17.308  38.174  24.900  1.00  0.00     0.089 C 
HETATM    5 BR   LIG     1      18.198  36.803  25.948  1.00  0.00    -0.096 Br
ENDBRANCH   2   4
TORSDOF 1
ENDMDL
MODEL 3
REMARK VINA RESULT:      -3.6      2.229      2.879
REMARK  1 active torsions:
REMARK  status: ('A' for Active; 'I' for Inactive)
REMARK    1  A    between atoms: C_2  and  C_4 
ROOT
HETATM    1  C   LIG     1      17.392  38.229  22.825  1.00  0.00     0.010 C 
HETATM    2  C   LIG     1      16.797  37.435  23.994  1.00  0.00    -0.013 C 
HETATM    3  C   LIG     1      17.089  35.938  23.816  1.00  0.00     0.010 C 
ENDROOT
BRANCH   2   4
HETATM    4  C   LIG     1      17.350  37.958  25.331  1.00  0.00     0.089 C 
HETATM    5 BR   LIG     1      18.287  36.569  26.312  1.00  0.00    -0.096 Br
ENDBRANCH   2   4
TORSDOF 1
ENDMDL
MODEL 4
REMARK VINA RESULT:      -3.5      5.606      6.202
REMARK  1 active torsions:
REMARK  status: ('A' for Active; 'I' for Inactive)
REMARK    1  A    between atoms: C_2  and  C_4 
ROOT
HETATM    1  C   LIG     1      18.950  37.036  19.630  1.00  0.00     0.010 C 
HETATM    2  C   LIG     1      19.467  38.463  19.409  1.00  0.00    -0.013 C 
HETATM    3  C   LIG     1      18.956  39.004  18.066  1.00  0.00     0.010 C 
ENDROOT
BRANCH   2   4
HETATM    4  C   LIG     1      19.043  39.371  20.576  1.00  0.00     0.089 C 
HETATM    5 BR   LIG     1      17.802  38.472  21.770  1.00  0.00    -0.096 Br
ENDBRANCH   2   4
TORSDOF 1
ENDMDL
MODEL 5
REMARK VINA RESULT:      -3.5      3.418      3.990
REMARK  1 active torsions:
REMARK  status: ('A' for Active; 'I' for Inactive)
REMARK    1  A    between atoms: C_2  and  C_4 
ROOT
HETATM    1  C   LIG     1      18.036  36.541  20.365  1.00  0.00     0.010 C 
HETATM    2  C   LIG     1      16.963  36.517  21.460  1.00  0.00    -0.013 C 
HETATM    3  C   LIG     1      17.023  35.187  22.226  1.00  0.00     0.010 C 
ENDROOT
BRANCH   2   4
HETATM    4  C   LIG     1      17.141  37.717  22.407  1.00  0.00     0.089 C 
HETATM    5 BR   LIG     1      18.341  39.048  21.660  1.00  0.00    -0.096 Br
ENDBRANCH   2   4
TORSDOF 1
ENDMDL
MODEL 6
REMARK VINA RESULT:      -3.4      3.951      4.417
REMARK  1 active torsions:
REMARK  status: ('A' for Active; 'I' for Inactive)
REMARK    1  A    between atoms: C_2  and  C_4 
ROOT
HETATM    1  C   LIG     1      16.892  35.373  22.717  1.00  0.00     0.010 C 
HETATM    2  C   LIG     1      17.225  35.562  21.233  1.00  0.00    -0.013 C 
HETATM    3  C   LIG     1      15.989  35.256  20.374  1.00  0.00     0.010 C 
ENDROOT
BRANCH   2   4
HETATM    4  C   LIG     1      17.743  36.988  20.980  1.00  0.00     0.089 C 
HETATM    5 BR   LIG     1      19.089  37.024  19.580  1.00  0.00    -0.096 Br
ENDBRANCH   2   4
TORSDOF 1
ENDMDL
MODEL 7
REMARK VINA RESULT:      -3.4      3.896      4.489
REMARK  1 active torsions:
REMARK  status: ('A' for Active; 'I' for Inactive)
REMARK    1  A    between atoms: C_2  and  C_4 
ROOT
HETATM    1  C   LIG     1      18.570  39.117  21.038  1.00  0.00     0.010 C 
HETATM    2  C   LIG     1      17.826  38.141  21.956  1.00  0.00    -0.013 C 
HETATM    3  C   LIG     1      16.594  38.826  22.564  1.00  0.00     0.010 C 
ENDROOT
BRANCH   2   4
HETATM    4  C   LIG     1      17.435  36.871  21.180  1.00  0.00     0.089 C 
HETATM    5 BR   LIG     1      16.877  35.444  22.373  1.00  0.00    -0.096 Br
ENDBRANCH   2   4
TORSDOF 1
ENDMDL
MODEL 8
REMARK VINA RESULT:      -3.4      4.201      4.906
REMARK  1 active torsions:
REMARK  status: ('A' for Active; 'I' for Inactive)
REMARK    1  A    between atoms: C_2  and  C_4 
ROOT
HETATM    1  C   LIG     1      18.099  36.955  20.638  1.00  0.00     0.010 C 
HETATM    2  C   LIG     1      17.802  38.309  21.293  1.00  0.00    -0.013 C 
HETATM    3  C   LIG     1      17.521  38.119  22.790  1.00  0.00     0.010 C 
ENDROOT
BRANCH   2   4
HETATM    4  C   LIG     1      18.973  39.281  21.062  1.00  0.00     0.089 C 
HETATM    5 BR   LIG     1      20.070  38.737  19.556  1.00  0.00    -0.096 Br
ENDBRANCH   2   4
TORSDOF 1
ENDMDL
MODEL 9
REMARK VINA RESULT:      -3.3      2.948      3.501
REMARK  1 active torsions:
REMARK  status: ('A' for Active; 'I' for Inactive)
REMARK    1  A    between atoms: C_2  and  C_4 
ROOT
HETATM    1  C   LIG     1      16.983  35.252  22.830  1.00  0.00     0.010 C 
HETATM    2  C   LIG     1      16.302  36.317  21.963  1.00  0.00    -0.013 C 
HETATM    3  C   LIG     1      15.032  35.740  21.321  1.00  0.00     0.010 C 
ENDROOT
BRANCH   2   4
HETATM    4  C   LIG     1      15.986  37.567  22.804  1.00  0.00     0.089 C 
HETATM    5 BR   LIG     1      16.990  37.585  24.466  1.00  0.00    -0.096 Br
ENDBRANCH   2   4
TORSDOF 1
ENDMDL
MODEL 10
REMARK VINA RESULT:      -3.3      2.931      3.901
REMARK  1 active torsions:
REMARK  status: ('A' for Active; 'I' for Inactive)
REMARK    1  A    between atoms: C_2  and  C_4 
ROOT
HETATM    1  C   LIG     1      15.620  37.829  22.770  1.00  0.00     0.010 C 
HETATM    2  C   LIG     1      17.015  38.461  22.693  1.00  0.00    -0.013 C 
HETATM    3  C   LIG     1      17.773  38.224  24.007  1.00  0.00     0.010 C 
ENDROOT
BRANCH   2   4
HETATM    4  C   LIG     1      17.790  37.896  21.489  1.00  0.00     0.089 C 
HETATM    5 BR   LIG     1      18.899  39.252  20.650  1.00  0.00    -0.096 Br
ENDBRANCH   2   4
TORSDOF 1
ENDMDL
MODEL 11
REMARK VINA RESULT:      -3.3      2.573      3.438
REMARK  1 active torsions:
REMARK  status: ('A' for Active; 'I' for Inactive)
REMARK    1  A    between atoms: C_2  and  C_4 
ROOT
HETATM    1  C   LIG     1      17.844  38.170  24.264  1.00  0.00     0.010 C 
HETATM    2  C   LIG     1      17.056  38.560  23.008  1.00  0.00    -0.013 C 
HETATM    3  C   LIG     1      18.015  38.760  21.826  1.00  0.00     0.010 C 
ENDROOT
BRANCH   2   4
HETATM    4  C   LIG     1      15.993  37.494  22.692  1.00  0.00     0.089 C 
HETATM    5 BR   LIG     1      16.796  35.855  22.029  1.00  0.00    -0.096 Br
ENDBRANCH   2   4
TORSDOF 1
ENDMDL
MODEL 12
REMARK VINA RESULT:      -3.2     11.770     12.468
REMARK  1 active torsions:
REMARK  status: ('A' for Active; 'I' for Inactive)
REMARK    1  A    between atoms: C_2  and  C_4 
ROOT
HETATM    1  C   LIG     1      15.621  31.359  14.691  1.00  0.00     0.010 C 
HETATM    2  C   LIG     1      14.596  30.335  14.191  1.00  0.00    -0.013 C 
HETATM    3  C   LIG     1      15.272  28.972  13.984  1.00  0.00     0.010 C 
ENDROOT
BRANCH   2   4
HETATM    4  C   LIG     1      13.420  30.233  15.178  1.00  0.00     0.089 C 
HETATM    5 BR   LIG     1      13.675  31.385  16.719  1.00  0.00    -0.096 Br
ENDBRANCH   2   4
TORSDOF 1
ENDMDL
MODEL 13
REMARK VINA RESULT:      -3.1      1.971      3.030
REMARK  1 active torsions:
REMARK  status: ('A' for Active; 'I' for Inactive)
REMARK    1  A    between atoms: C_2  and  C_4 
ROOT
HETATM    1  C   LIG     1      17.054  38.338  22.909  1.00  0.00     0.010 C 
HETATM    2  C   LIG     1      17.642  37.538  24.078  1.00  0.00    -0.013 C 
HETATM    3  C   LIG     1      17.343  38.249  25.405  1.00  0.00     0.010 C 
ENDROOT
BRANCH   2   4
HETATM    4  C   LIG     1      17.087  36.103  24.074  1.00  0.00     0.089 C 
HETATM    5 BR   LIG     1      16.895  35.413  22.269  1.00  0.00    -0.096 Br
ENDBRANCH   2   4
TORSDOF 1
ENDMDL
MODEL 14
REMARK VINA RESULT:      -3.1     10.716     11.623
REMARK  1 active torsions:
REMARK  status: ('A' for Active; 'I' for Inactive)
REMARK    1  A    between atoms: C_2  and  C_4 
ROOT
HETATM    1  C   LIG     1      14.131  32.552  16.965  1.00  0.00     0.010 C 
HETATM    2  C   LIG     1      14.299  31.208  16.247  1.00  0.00    -0.013 C 
HETATM    3  C   LIG     1      12.925  30.635  15.874  1.00  0.00     0.010 C 
ENDROOT
BRANCH   2   4
HETATM    4  C   LIG     1      15.192  31.375  15.005  1.00  0.00     0.089 C 
HETATM    5 BR   LIG     1      15.183  29.781  13.896  1.00  0.00    -0.096 Br
ENDBRANCH   2   4
TORSDOF 1
ENDMDL
MODEL 15
REMARK VINA RESULT:      -3.1     11.439     12.090
REMARK  1 active torsions:
REMARK  status: ('A' for Active; 'I' for Inactive)
REMARK    1  A    between atoms: C_2  and  C_4 
ROOT
HETATM    1  C   LIG     1      15.305  29.232  14.134  1.00  0.00     0.010 C 
HETATM    2  C   LIG     1      14.695  30.612  14.407  1.00  0.00    -0.013 C 
HETATM    3  C   LIG     1      13.642  30.510  15.519  1.00  0.00     0.010 C 
ENDROOT
BRANCH   2   4
HETATM    4  C   LIG     1      15.799  31.620  14.773  1.00  0.00     0.089 C 
HETATM    5 BR   LIG     1      15.326  32.664  16.340  1.00  0.00    -0.096 Br
ENDBRANCH   2   4
TORSDOF 1
ENDMDL
MODEL 16
REMARK VINA RESULT:      -3.1      9.147     10.174
REMARK  1 active torsions:
REMARK  status: ('A' for Active; 'I' for Inactive)
REMARK    1  A    between atoms: C_2  and  C_4 
ROOT
HETATM    1  C   LIG     1      12.648  32.049  16.742  1.00  0.00     0.010 C 
HETATM    2  C   LIG     1      14.056  31.456  16.871  1.00  0.00    -0.013 C 
HETATM    3  C   LIG     1      14.566  31.009  15.493  1.00  0.00     0.010 C 
ENDROOT
BRANCH   2   4
HETATM    4  C   LIG     1      15.009  32.478  17.516  1.00  0.00     0.089 C 
HETATM    5 BR   LIG     1      15.205  32.170  19.424  1.00  0.00    -0.096 Br
ENDBRANCH   2   4
TORSDOF 1
ENDMDL
MODEL 17
REMARK VINA RESULT:      -3.0     10.956     11.964
REMARK  1 active torsions:
REMARK  status: ('A' for Active; 'I' for Inactive)
REMARK    1  A    between atoms: C_2  and  C_4 
ROOT
HETATM    1  C   LIG     1      16.008  32.034  13.490  1.00  0.00     0.010 C 
HETATM    2  C   LIG     1      15.729  31.367  14.842  1.00  0.00    -0.013 C 
HETATM    3  C   LIG     1      15.540  32.437  15.927  1.00  0.00     0.010 C 
ENDROOT
BRANCH   2   4
HETATM    4  C   LIG     1      14.498  30.449  14.740  1.00  0.00     0.089 C 
HETATM    5 BR   LIG     1      13.209  30.819  16.145  1.00  0.00    -0.096 Br
ENDBRANCH   2   4
TORSDOF 1
ENDMDL
MODEL 18
REMARK VINA RESULT:      -3.0      3.670      4.277
REMARK  1 active torsions:
REMARK  status: ('A' for Active; 'I' for Inactive)
REMARK    1  A    between atoms: C_2  and  C_4 
ROOT
HETATM    1  C   LIG     1      16.637  37.521  22.235  1.00  0.00     0.010 C 
HETATM    2  C   LIG     1      17.249  36.169  21.850  1.00  0.00    -0.013 C 
HETATM    3  C   LIG     1      16.964  35.132  22.945  1.00  0.00     0.010 C 
ENDROOT
BRANCH   2   4
HETATM    4  C   LIG     1      16.705  35.707  20.486  1.00  0.00     0.089 C 
HETATM    5 BR   LIG     1      15.637  34.094  20.650  1.00  0.00    -0.096 Br
ENDBRANCH   2   4
TORSDOF 1
ENDMDL
MODEL 19
REMARK VINA RESULT:      -2.9      5.079      5.716
REMARK  1 active torsions:
REMARK  status: ('A' for Active; 'I' for Inactive)
REMARK    1  A    between atoms: C_2  and  C_4 
ROOT
HETATM    1  C   LIG     1      17.242  35.631  21.248  1.00  0.00     0.010 C 
HETATM    2  C   LIG     1      15.880  34.935  21.137  1.00  0.00    -0.013 C 
HETATM    3  C   LIG     1      14.755  35.923  21.476  1.00  0.00     0.010 C 
ENDROOT
BRANCH   2   4
HETATM    4  C   LIG     1      15.698  34.340  19.730  1.00  0.00     0.089 C 
HETATM    5 BR   LIG     1      15.362  32.429  19.796  1.00  0.00    -0.096 Br
ENDBRANCH   2   4
TORSDOF 1
ENDMDL
MODEL 20
REMARK VINA RESULT:      -2.8      9.547     10.231
REMARK  1 active torsions:
REMARK  status: ('A' for Active; 'I' for Inactive)
REMARK    1  A    between atoms: C_2  and  C_4 
ROOT
HETATM    1  C   LIG     1      15.029  33.968  16.859  1.00  0.00     0.010 C 
HETATM    2  C   LIG     1      15.201  32.453  16.702  1.00  0.00    -0.013 C 
HETATM    3  C   LIG     1      13.889  31.736  17.048  1.00  0.00     0.010 C 
ENDROOT
BRANCH   2   4
HETATM    4  C   LIG     1      15.665  32.114  15.274  1.00  0.00     0.089 C 
HETATM    5 BR   LIG     1      17.274  33.089  14.793  1.00  0.00    -0.096 Br
ENDBRANCH   2   4
TORSDOF 1
ENDMDL
