REMARK  1 active torsions:
REMARK  status: ('A' for Active; 'I' for Inactive)
REMARK    1  A    between atoms: C_2  and  C_3 
ROOT
HETATM    1  C   LIG     1      -1.279   1.327   0.112  1.00  0.00     0.018 C 
HETATM    2  C   LIG     1      -0.408   0.322  -0.023  1.00  0.00    -0.072 C 
HETATM    3  C   LIG     1      -0.757  -0.861  -0.890  1.00  0.00     0.047 C 
ENDROOT
BRANCH   2   4
HETATM    4  C   LIG     1       0.892   0.396   0.690  1.00  0.00    -0.004 C 
HETATM    5  C   LIG     1       1.825  -0.554   0.618  1.00  0.00     0.011 C 
ENDBRANCH   2   4
TORSDOF 1
