MODEL 1
REMARK VINA RESULT:      -6.6      0.000      0.000
REMARK  5 active torsions:
REMARK  status: ('A' for Active; 'I' for Inactive)
REMARK    1  A    between atoms: C_4  and  C_5 
REMARK    2  A    between atoms: C_5  and  C_6 
REMARK    3  A    between atoms: C_6  and  C_7 
REMARK    4  A    between atoms: C_7  and  C_10 
REMARK    5  A    between atoms: C_7  and  O_9 
ROOT
HETATM    1  C   LIG     1      17.122  39.008  22.500  1.00  0.00     0.045 C 
ENDROOT
BRANCH   1   2
HETATM    2  C   LIG     1      18.543  38.801  21.927  1.00  0.00     0.030 C 
BRANCH   2   3
HETATM    3  C   LIG     1      18.677  39.301  20.506  1.00  0.00    -0.025 C 
HETATM    4  C   LIG     1      18.927  38.486  19.459  1.00  0.00    -0.091 C 
HETATM    5  C   LIG     1      19.040  39.090  18.083  1.00  0.00     0.042 C 
HETATM    6  C   LIG     1      19.092  36.996  19.638  1.00  0.00     0.042 C 
ENDBRANCH   2   3
ENDBRANCH   1   2
BRANCH   1   7
HETATM    7  C   LIG     1      16.490  37.764  23.193  1.00  0.00     0.071 C 
HETATM    8  C   LIG     1      17.235  37.421  24.495  1.00  0.00     0.050 C 
BRANCH   7   9
HETATM    9  C   LIG     1      16.501  36.562  22.257  1.00  0.00    -0.000 C 
HETATM   10  C   LIG     1      16.923  35.354  22.649  1.00  0.00     0.010 C 
ENDBRANCH   7   9
BRANCH   7  11
HETATM   11  O   LIG     1      15.157  38.070  23.537  1.00  0.00    -0.386 OA
HETATM   12  H   LIG     1      14.559  37.485  23.001  1.00  0.00     0.211 HD
ENDBRANCH   7  11
ENDBRANCH   1   7
TORSDOF 5
ENDMDL
MODEL 2
REMARK VINA RESULT:      -6.1      1.621      2.277
REMARK  5 active torsions:
REMARK  status: ('A' for Active; 'I' for Inactive)
REMARK    1  A    between atoms: C_4  and  C_5 
REMARK    2  A    between atoms: C_5  and  C_6 
REMARK    3  A    between atoms: C_6  and  C_7 
REMARK    4  A    between atoms: C_7  and  C_10 
REMARK    5  A    between atoms: C_7  and  O_9 
ROOT
HETATM    1  C   LIG     1      18.366  38.132  23.956  1.00  0.00     0.045 C 
ENDROOT
BRANCH   1   2
HETATM    2  C   LIG     1      17.443  38.383  22.741  1.00  0.00     0.030 C 
BRANCH   2   3
HETATM    3  C   LIG     1      17.813  37.538  21.543  1.00  0.00    -0.025 C 
HETATM    4  C   LIG     1      18.557  38.002  20.515  1.00  0.00    -0.091 C 
HETATM    5  C   LIG     1      18.868  37.073  19.371  1.00  0.00     0.042 C 
HETATM    6  C   LIG     1      19.078  39.419  20.492  1.00  0.00     0.042 C 
ENDBRANCH   2   3
ENDBRANCH   1   2
BRANCH   1   7
HETATM    7  C   LIG     1      17.719  37.352  25.140  1.00  0.00     0.071 C 
HETATM    8  C   LIG     1      18.744  37.103  26.261  1.00  0.00     0.050 C 
BRANCH   7   9
HETATM    9  C   LIG     1      17.141  36.026  24.661  1.00  0.00    -0.000 C 
HETATM   10  C   LIG     1      17.400  34.868  25.280  1.00  0.00     0.010 C 
ENDBRANCH   7   9
BRANCH   7  11
HETATM   11  O   LIG     1      16.683  38.140  25.683  1.00  0.00    -0.386 OA
HETATM   12  H   LIG     1      16.943  38.394  26.608  1.00  0.00     0.211 HD
ENDBRANCH   7  11
ENDBRANCH   1   7
TORSDOF 5
ENDMDL
MODEL 3
REMARK VINA RESULT:      -5.9      2.324      4.841
REMARK  5 active torsions:
REMARK  status: ('A' for Active; 'I' for Inactive)
REMARK    1  A    between atoms: C_4  and  C_5 
REMARK    2  A    between atoms: C_5  and  C_6 
REMARK    3  A    between atoms: C_6  and  C_7 
REMARK    4  A    between atoms: C_7  and  C_10 
REMARK    5  A    between atoms: C_7  and  O_9 
ROOT
HETATM    1  C   LIG     1      19.049  39.544  20.764  1.00  0.00     0.045 C 
ENDROOT
BRANCH   1   2
HETATM    2  C   LIG     1      17.737  38.973  21.349  1.00  0.00     0.030 C 
BRANCH   2   3
HETATM    3  C   LIG     1      17.755  38.899  22.859  1.00  0.00    -0.025 C 
HETATM    4  C   LIG     1      17.356  37.809  23.548  1.00  0.00    -0.091 C 
HETATM    5  C   LIG     1      17.417  37.842  25.053  1.00  0.00     0.042 C 
HETATM    6  C   LIG     1      16.856  36.568  22.846  1.00  0.00     0.042 C 
ENDBRANCH   2   3
ENDBRANCH   1   2
BRANCH   1   7
HETATM    7  C   LIG     1      19.540  38.879  19.442  1.00  0.00     0.071 C 
HETATM    8  C   LIG     1      18.638  39.273  18.260  1.00  0.00     0.050 C 
BRANCH   7   9
HETATM    9  C   LIG     1      19.578  37.363  19.584  1.00  0.00    -0.000 C 
HETATM   10  C   LIG     1      18.559  36.583  19.202  1.00  0.00     0.010 C 
ENDBRANCH   7   9
BRANCH   7  11
HETATM   11  O   LIG     1      20.838  39.350  19.158  1.00  0.00    -0.386 OA
HETATM   12  H   LIG     1      20.753  40.159  18.587  1.00  0.00     0.211 HD
ENDBRANCH   7  11
ENDBRANCH   1   7
TORSDOF 5
ENDMDL
MODEL 4
REMARK VINA RESULT:      -5.9      2.663      5.216
REMARK  5 active torsions:
REMARK  status: ('A' for Active; 'I' for Inactive)
REMARK    1  A    between atoms: C_4  and  C_5 
REMARK    2  A    between atoms: C_5  and  C_6 
REMARK    3  A    between atoms: C_6  and  C_7 
REMARK    4  A    between atoms: C_7  and  C_10 
REMARK    5  A    between atoms: C_7  and  O_9 
ROOT
HETATM    1  C   LIG     1      19.030  37.401  19.349  1.00  0.00     0.045 C 
ENDROOT
BRANCH   1   2
HETATM    2  C   LIG     1      18.310  36.898  20.621  1.00  0.00     0.030 C 
BRANCH   2   3
HETATM    3  C   LIG     1      17.212  35.905  20.316  1.00  0.00    -0.025 C 
HETATM    4  C   LIG     1      16.602  35.166  21.267  1.00  0.00    -0.091 C 
HETATM    5  C   LIG     1      15.517  34.206  20.851  1.00  0.00     0.042 C 
HETATM    6  C   LIG     1      16.981  35.282  22.724  1.00  0.00     0.042 C 
ENDBRANCH   2   3
ENDBRANCH   1   2
BRANCH   1   7
HETATM    7  C   LIG     1      19.237  38.943  19.259  1.00  0.00     0.071 C 
HETATM    8  C   LIG     1      18.785  39.635  20.557  1.00  0.00     0.050 C 
BRANCH   7   9
HETATM    9  C   LIG     1      18.477  39.521  18.072  1.00  0.00    -0.000 C 
HETATM   10  C   LIG     1      18.974  39.507  16.829  1.00  0.00     0.010 C 
ENDBRANCH   7   9
BRANCH   7  11
HETATM   11  O   LIG     1      20.613  39.203  19.099  1.00  0.00    -0.386 OA
HETATM   12  H   LIG     1      20.826  40.041  19.590  1.00  0.00     0.211 HD
ENDBRANCH   7  11
ENDBRANCH   1   7
TORSDOF 5
ENDMDL
MODEL 5
REMARK VINA RESULT:      -5.8      3.420      5.405
REMARK  5 active torsions:
REMARK  status: ('A' for Active; 'I' for Inactive)
REMARK    1  A    between atoms: C_4  and  C_5 
REMARK    2  A    between atoms: C_5  and  C_6 
REMARK    3  A    between atoms: C_6  and  C_7 
REMARK    4  A    between atoms: C_7  and  C_10 
REMARK    5  A    between atoms: C_7  and  O_9 
ROOT
HETATM    1  C   LIG     1      17.166  35.342  21.494  1.00  0.00     0.045 C 
ENDROOT
BRANCH   1   2
HETATM    2  C   LIG     1      16.807  36.015  22.839  1.00  0.00     0.030 C 
BRANCH   2   3
HETATM    3  C   LIG     1      17.170  35.161  24.033  1.00  0.00    -0.025 C 
HETATM    4  C   LIG     1      17.543  35.679  25.223  1.00  0.00    -0.091 C 
HETATM    5  C   LIG     1      17.881  34.736  26.348  1.00  0.00     0.042 C 
HETATM    6  C   LIG     1      17.626  37.170  25.446  1.00  0.00     0.042 C 
ENDBRANCH   2   3
ENDBRANCH   1   2
BRANCH   1   7
HETATM    7  C   LIG     1      15.954  34.864  20.638  1.00  0.00     0.071 C 
HETATM    8  C   LIG     1      14.654  35.552  21.093  1.00  0.00     0.050 C 
BRANCH   7   9
HETATM    9  C   LIG     1      15.798  33.351  20.723  1.00  0.00    -0.000 C 
HETATM   10  C   LIG     1      15.265  32.630  19.729  1.00  0.00     0.010 C 
ENDBRANCH   7   9
BRANCH   7  11
HETATM   11  O   LIG     1      16.180  35.232  19.296  1.00  0.00    -0.386 OA
HETATM   12  H   LIG     1      17.113  34.983  19.062  1.00  0.00     0.211 HD
ENDBRANCH   7  11
ENDBRANCH   1   7
TORSDOF 5
ENDMDL
MODEL 6
REMARK VINA RESULT:      -5.7      1.797      4.983
REMARK  5 active torsions:
REMARK  status: ('A' for Active; 'I' for Inactive)
REMARK    1  A    between atoms: C_4  and  C_5 
REMARK    2  A    between atoms: C_5  and  C_6 
REMARK    3  A    between atoms: C_6  and  C_7 
REMARK    4  A    between atoms: C_7  and  C_10 
REMARK    5  A    between atoms: C_7  and  O_9 
ROOT
HETATM    1  C   LIG     1      17.689  37.056  21.976  1.00  0.00     0.045 C 
ENDROOT
BRANCH   1   2
HETATM    2  C   LIG     1      16.617  36.515  22.951  1.00  0.00     0.030 C 
BRANCH   2   3
HETATM    3  C   LIG     1      17.187  35.557  23.972  1.00  0.00    -0.025 C 
HETATM    4  C   LIG     1      17.569  35.940  25.209  1.00  0.00    -0.091 C 
HETATM    5  C   LIG     1      18.124  34.901  26.148  1.00  0.00     0.042 C 
HETATM    6  C   LIG     1      17.452  37.375  25.664  1.00  0.00     0.042 C 
ENDBRANCH   2   3
ENDBRANCH   1   2
BRANCH   1   7
HETATM    7  C   LIG     1      17.948  38.591  22.048  1.00  0.00     0.071 C 
HETATM    8  C   LIG     1      16.692  39.339  22.530  1.00  0.00     0.050 C 
BRANCH   7   9
HETATM    9  C   LIG     1      18.383  39.128  20.690  1.00  0.00    -0.000 C 
HETATM   10  C   LIG     1      19.641  39.018  20.247  1.00  0.00     0.010 C 
ENDBRANCH   7   9
BRANCH   7  11
HETATM   11  O   LIG     1      18.970  38.830  22.989  1.00  0.00    -0.386 OA
HETATM   12  H   LIG     1      19.828  38.917  22.496  1.00  0.00     0.211 HD
ENDBRANCH   7  11
ENDBRANCH   1   7
TORSDOF 5
ENDMDL
MODEL 7
REMARK VINA RESULT:      -5.4      2.485      4.913
REMARK  5 active torsions:
REMARK  status: ('A' for Active; 'I' for Inactive)
REMARK    1  A    between atoms: C_4  and  C_5 
REMARK    2  A    between atoms: C_5  and  C_6 
REMARK    3  A    between atoms: C_6  and  C_7 
REMARK    4  A    between atoms: C_7  and  C_10 
REMARK    5  A    between atoms: C_7  and  O_9 
ROOT
HETATM    1  C   LIG     1      18.612  37.203  19.181  1.00  0.00     0.045 C 
ENDROOT
BRANCH   1   2
HETATM    2  C   LIG     1      18.277  36.429  20.478  1.00  0.00     0.030 C 
BRANCH   2   3
HETATM    3  C   LIG     1      16.920  35.763  20.424  1.00  0.00    -0.025 C 
HETATM    4  C   LIG     1      16.338  35.191  21.499  1.00  0.00    -0.091 C 
HETATM    5  C   LIG     1      14.982  34.555  21.335  1.00  0.00     0.042 C 
HETATM    6  C   LIG     1      17.013  35.176  22.851  1.00  0.00     0.042 C 
ENDBRANCH   2   3
ENDBRANCH   1   2
BRANCH   1   7
HETATM    7  C   LIG     1      19.122  38.662  19.383  1.00  0.00     0.071 C 
HETATM    8  C   LIG     1      20.653  38.693  19.538  1.00  0.00     0.050 C 
BRANCH   7   9
HETATM    9  C   LIG     1      18.464  39.299  20.601  1.00  0.00    -0.000 C 
HETATM   10  C   LIG     1      19.049  39.311  21.805  1.00  0.00     0.010 C 
ENDBRANCH   7   9
BRANCH   7  11
HETATM   11  O   LIG     1      18.798  39.413  18.235  1.00  0.00    -0.386 OA
HETATM   12  H   LIG     1      19.613  39.906  17.951  1.00  0.00     0.211 HD
ENDBRANCH   7  11
ENDBRANCH   1   7
TORSDOF 5
ENDMDL
MODEL 8
REMARK VINA RESULT:      -5.3      8.306      9.616
REMARK  5 active torsions:
REMARK  status: ('A' for Active; 'I' for Inactive)
REMARK    1  A    between atoms: C_4  and  C_5 
REMARK    2  A    between atoms: C_5  and  C_6 
REMARK    3  A    between atoms: C_6  and  C_7 
REMARK    4  A    between atoms: C_7  and  C_10 
REMARK    5  A    between atoms: C_7  and  O_9 
ROOT
HETATM    1  C   LIG     1      13.762  31.341  17.024  1.00  0.00     0.045 C 
ENDROOT
BRANCH   1   2
HETATM    2  C   LIG     1      13.432  31.073  15.537  1.00  0.00     0.030 C 
BRANCH   2   3
HETATM    3  C   LIG     1      13.917  29.720  15.066  1.00  0.00    -0.025 C 
HETATM    4  C   LIG     1      14.826  29.566  14.080  1.00  0.00    -0.091 C 
HETATM    5  C   LIG     1      15.241  28.171  13.690  1.00  0.00     0.042 C 
HETATM    6  C   LIG     1      15.428  30.753  13.366  1.00  0.00     0.042 C 
ENDBRANCH   2   3
ENDBRANCH   1   2
BRANCH   1   7
HETATM    7  C   LIG     1      14.664  32.582  17.298  1.00  0.00     0.071 C 
HETATM    8  C   LIG     1      15.846  32.631  16.315  1.00  0.00     0.050 C 
BRANCH   7   9
HETATM    9  C   LIG     1      15.181  32.566  18.731  1.00  0.00    -0.000 C 
HETATM   10  C   LIG     1      14.847  31.605  19.601  1.00  0.00     0.010 C 
ENDBRANCH   7   9
BRANCH   7  11
HETATM   11  O   LIG     1      13.897  33.747  17.095  1.00  0.00    -0.386 OA
HETATM   12  H   LIG     1      13.189  33.537  16.430  1.00  0.00     0.211 HD
ENDBRANCH   7  11
ENDBRANCH   1   7
TORSDOF 5
ENDMDL
MODEL 9
REMARK VINA RESULT:      -5.1      1.871      4.282
REMARK  5 active torsions:
REMARK  status: ('A' for Active; 'I' for Inactive)
REMARK    1  A    between atoms: C_4  and  C_5 
REMARK    2  A    between atoms: C_5  and  C_6 
REMARK    3  A    between atoms: C_6  and  C_7 
REMARK    4  A    between atoms: C_7  and  C_10 
REMARK    5  A    between atoms: C_7  and  O_9 
ROOT
HETATM    1  C   LIG     1      17.649  37.139  21.634  1.00  0.00     0.045 C 
ENDROOT
BRANCH   1   2
HETATM    2  C   LIG     1      17.175  35.934  22.480  1.00  0.00     0.030 C 
BRANCH   2   3
HETATM    3  C   LIG     1      16.856  34.720  21.637  1.00  0.00    -0.025 C 
HETATM    4  C   LIG     1      15.674  34.549  21.008  1.00  0.00    -0.091 C 
HETATM    5  C   LIG     1      15.462  33.301  20.192  1.00  0.00     0.042 C 
HETATM    6  C   LIG     1      14.570  35.576  21.106  1.00  0.00     0.042 C 
ENDBRANCH   2   3
ENDBRANCH   1   2
BRANCH   1   7
HETATM    7  C   LIG     1      17.670  38.511  22.374  1.00  0.00     0.071 C 
HETATM    8  C   LIG     1      16.248  39.086  22.508  1.00  0.00     0.050 C 
BRANCH   7   9
HETATM    9  C   LIG     1      18.564  39.504  21.642  1.00  0.00    -0.000 C 
HETATM   10  C   LIG     1      19.155  39.211  20.477  1.00  0.00     0.010 C 
ENDBRANCH   7   9
BRANCH   7  11
HETATM   11  O   LIG     1      18.169  38.311  23.677  1.00  0.00    -0.386 OA
HETATM   12  H   LIG     1      17.780  39.012  24.266  1.00  0.00     0.211 HD
ENDBRANCH   7  11
ENDBRANCH   1   7
TORSDOF 5
ENDMDL
MODEL 10
REMARK VINA RESULT:      -5.1      1.669      2.279
REMARK  5 active torsions:
REMARK  status: ('A' for Active; 'I' for Inactive)
REMARK    1  A    between atoms: C_4  and  C_5 
REMARK    2  A    between atoms: C_5  and  C_6 
REMARK    3  A    between atoms: C_6  and  C_7 
REMARK    4  A    between atoms: C_7  and  C_10 
REMARK    5  A    between atoms: C_7  and  O_9 
ROOT
HETATM    1  C   LIG     1      17.501  37.054  21.302  1.00  0.00     0.045 C 
ENDROOT
BRANCH   1   2
HETATM    2  C   LIG     1      18.547  36.592  20.261  1.00  0.00     0.030 C 
BRANCH   2   3
HETATM    3  C   LIG     1      18.460  37.367  18.965  1.00  0.00    -0.025 C 
HETATM    4  C   LIG     1      19.119  38.526  18.755  1.00  0.00    -0.091 C 
HETATM    5  C   LIG     1      18.963  39.216  17.424  1.00  0.00     0.042 C 
HETATM    6  C   LIG     1      20.001  39.139  19.817  1.00  0.00     0.042 C 
ENDBRANCH   2   3
ENDBRANCH   1   2
BRANCH   1   7
HETATM    7  C   LIG     1      16.534  35.947  21.819  1.00  0.00     0.071 C 
HETATM    8  C   LIG     1      17.038  35.352  23.146  1.00  0.00     0.050 C 
BRANCH   7   9
HETATM    9  C   LIG     1      16.376  34.842  20.782  1.00  0.00    -0.000 C 
HETATM   10  C   LIG     1      15.480  34.915  19.791  1.00  0.00     0.010 C 
ENDBRANCH   7   9
BRANCH   7  11
HETATM   11  O   LIG     1      15.275  36.531  22.069  1.00  0.00    -0.386 OA
HETATM   12  H   LIG     1      15.017  37.058  21.267  1.00  0.00     0.211 HD
ENDBRANCH   7  11
ENDBRANCH   1   7
TORSDOF 5
ENDMDL
MODEL 11
REMARK VINA RESULT:      -5.1      2.176      5.088
REMARK  5 active torsions:
REMARK  status: ('A' for Active; 'I' for Inactive)
REMARK    1  A    between atoms: C_4  and  C_5 
REMARK    2  A    between atoms: C_5  and  C_6 
REMARK    3  A    between atoms: C_6  and  C_7 
REMARK    4  A    between atoms: C_7  and  C_10 
REMARK    5  A    between atoms: C_7  and  O_9 
ROOT
HETATM    1  C   LIG     1      18.331  37.027  20.392  1.00  0.00     0.045 C 
ENDROOT
BRANCH   1   2
HETATM    2  C   LIG     1      17.147  37.041  21.386  1.00  0.00     0.030 C 
BRANCH   2   3
HETATM    3  C   LIG     1      17.210  35.907  22.385  1.00  0.00    -0.025 C 
HETATM    4  C   LIG     1      17.181  36.099  23.721  1.00  0.00    -0.091 C 
HETATM    5  C   LIG     1      17.249  34.896  24.626  1.00  0.00     0.042 C 
HETATM    6  C   LIG     1      17.082  37.482  24.319  1.00  0.00     0.042 C 
ENDBRANCH   2   3
ENDBRANCH   1   2
BRANCH   1   7
HETATM    7  C   LIG     1      19.037  38.399  20.170  1.00  0.00     0.071 C 
HETATM    8  C   LIG     1      18.977  39.261  21.443  1.00  0.00     0.050 C 
BRANCH   7   9
HETATM    9  C   LIG     1      18.402  39.148  19.005  1.00  0.00    -0.000 C 
HETATM   10  C   LIG     1      18.939  39.152  17.779  1.00  0.00     0.010 C 
ENDBRANCH   7   9
BRANCH   7  11
HETATM   11  O   LIG     1      20.397  38.162  19.883  1.00  0.00    -0.386 OA
HETATM   12  H   LIG     1      20.513  38.199  18.896  1.00  0.00     0.211 HD
ENDBRANCH   7  11
ENDBRANCH   1   7
TORSDOF 5
ENDMDL
MODEL 12
REMARK VINA RESULT:      -4.9      1.597      2.406
REMARK  5 active torsions:
REMARK  status: ('A' for Active; 'I' for Inactive)
REMARK    1  A    between atoms: C_4  and  C_5 
REMARK    2  A    between atoms: C_5  and  C_6 
REMARK    3  A    between atoms: C_6  and  C_7 
REMARK    4  A    between atoms: C_7  and  C_10 
REMARK    5  A    between atoms: C_7  and  O_9 
ROOT
HETATM    1  C   LIG     1      17.608  37.342  21.480  1.00  0.00     0.045 C 
ENDROOT
BRANCH   1   2
HETATM    2  C   LIG     1      18.364  36.638  20.330  1.00  0.00     0.030 C 
BRANCH   2   3
HETATM    3  C   LIG     1      18.310  37.416  19.034  1.00  0.00    -0.025 C 
HETATM    4  C   LIG     1      19.119  38.465  18.770  1.00  0.00    -0.091 C 
HETATM    5  C   LIG     1      18.981  39.169  17.445  1.00  0.00     0.042 C 
HETATM    6  C   LIG     1      20.149  38.941  19.767  1.00  0.00     0.042 C 
ENDBRANCH   2   3
ENDBRANCH   1   2
BRANCH   1   7
HETATM    7  C   LIG     1      16.665  36.430  22.321  1.00  0.00     0.071 C 
HETATM    8  C   LIG     1      15.374  36.111  21.547  1.00  0.00     0.050 C 
BRANCH   7   9
HETATM    9  C   LIG     1      16.323  37.089  23.651  1.00  0.00    -0.000 C 
HETATM   10  C   LIG     1      17.264  37.482  24.518  1.00  0.00     0.010 C 
ENDBRANCH   7   9
BRANCH   7  11
HETATM   11  O   LIG     1      17.324  35.208  22.565  1.00  0.00    -0.386 OA
HETATM   12  H   LIG     1      18.231  35.413  22.915  1.00  0.00     0.211 HD
ENDBRANCH   7  11
ENDBRANCH   1   7
TORSDOF 5
ENDMDL
MODEL 13
REMARK VINA RESULT:      -4.9      8.548      9.755
REMARK  5 active torsions:
REMARK  status: ('A' for Active; 'I' for Inactive)
REMARK    1  A    between atoms: C_4  and  C_5 
REMARK    2  A    between atoms: C_5  and  C_6 
REMARK    3  A    between atoms: C_6  and  C_7 
REMARK    4  A    between atoms: C_7  and  C_10 
REMARK    5  A    between atoms: C_7  and  O_9 
ROOT
HETATM    1  C   LIG     1      15.792  32.196  16.105  1.00  0.00     0.045 C 
ENDROOT
BRANCH   1   2
HETATM    2  C   LIG     1      15.225  31.743  14.740  1.00  0.00     0.030 C 
BRANCH   2   3
HETATM    3  C   LIG     1      15.703  30.366  14.338  1.00  0.00    -0.025 C 
HETATM    4  C   LIG     1      14.867  29.325  14.138  1.00  0.00    -0.091 C 
HETATM    5  C   LIG     1      15.451  27.995  13.738  1.00  0.00     0.042 C 
HETATM    6  C   LIG     1      13.373  29.466  14.306  1.00  0.00     0.042 C 
ENDBRANCH   2   3
ENDBRANCH   1   2
BRANCH   1   7
HETATM    7  C   LIG     1      14.729  32.565  17.185  1.00  0.00     0.071 C 
HETATM    8  C   LIG     1      15.338  32.509  18.597  1.00  0.00     0.050 C 
BRANCH   7   9
HETATM    9  C   LIG     1      13.528  31.631  17.100  1.00  0.00    -0.000 C 
HETATM   10  C   LIG     1      12.317  32.057  16.722  1.00  0.00     0.010 C 
ENDBRANCH   7   9
BRANCH   7  11
HETATM   11  O   LIG     1      14.303  33.890  16.960  1.00  0.00    -0.386 OA
HETATM   12  H   LIG     1      14.526  34.425  17.768  1.00  0.00     0.211 HD
ENDBRANCH   7  11
ENDBRANCH   1   7
TORSDOF 5
ENDMDL
MODEL 14
REMARK VINA RESULT:      -4.8      8.924     11.113
REMARK  5 active torsions:
REMARK  status: ('A' for Active; 'I' for Inactive)
REMARK    1  A    between atoms: C_4  and  C_5 
REMARK    2  A    between atoms: C_5  and  C_6 
REMARK    3  A    between atoms: C_6  and  C_7 
REMARK    4  A    between atoms: C_7  and  C_10 
REMARK    5  A    between atoms: C_7  and  O_9 
ROOT
HETATM    1  C   LIG     1      18.912  33.544  13.070  1.00  0.00     0.045 C 
ENDROOT
BRANCH   1   2
HETATM    2  C   LIG     1      17.397  33.794  13.254  1.00  0.00     0.030 C 
BRANCH   2   3
HETATM    3  C   LIG     1      16.590  32.515  13.248  1.00  0.00    -0.025 C 
HETATM    4  C   LIG     1      15.997  32.012  14.352  1.00  0.00    -0.091 C 
HETATM    5  C   LIG     1      15.215  30.730  14.233  1.00  0.00     0.042 C 
HETATM    6  C   LIG     1      16.101  32.704  15.690  1.00  0.00     0.042 C 
ENDBRANCH   2   3
ENDBRANCH   1   2
BRANCH   1   7
HETATM    7  C   LIG     1      19.462  33.784  11.631  1.00  0.00     0.071 C 
HETATM    8  C   LIG     1      19.671  32.450  10.893  1.00  0.00     0.050 C 
BRANCH   7   9
HETATM    9  C   LIG     1      20.771  34.562  11.678  1.00  0.00    -0.000 C 
HETATM   10  C   LIG     1      21.610  34.488  12.718  1.00  0.00     0.010 C 
ENDBRANCH   7   9
BRANCH   7  11
HETATM   11  O   LIG     1      18.508  34.525  10.904  1.00  0.00    -0.386 OA
HETATM   12  H   LIG     1      18.726  35.490  11.005  1.00  0.00     0.211 HD
ENDBRANCH   7  11
ENDBRANCH   1   7
TORSDOF 5
ENDMDL
MODEL 15
REMARK VINA RESULT:      -4.8      7.575      9.408
REMARK  5 active torsions:
REMARK  status: ('A' for Active; 'I' for Inactive)
REMARK    1  A    between atoms: C_4  and  C_5 
REMARK    2  A    between atoms: C_5  and  C_6 
REMARK    3  A    between atoms: C_6  and  C_7 
REMARK    4  A    between atoms: C_7  and  C_10 
REMARK    5  A    between atoms: C_7  and  O_9 
ROOT
HETATM    1  C   LIG     1      15.172  32.602  15.678  1.00  0.00     0.045 C 
ENDROOT
BRANCH   1   2
HETATM    2  C   LIG     1      14.867  32.055  17.092  1.00  0.00     0.030 C 
BRANCH   2   3
HETATM    3  C   LIG     1      15.256  33.021  18.187  1.00  0.00    -0.025 C 
HETATM    4  C   LIG     1      15.251  32.692  19.496  1.00  0.00    -0.091 C 
HETATM    5  C   LIG     1      15.658  33.734  20.506  1.00  0.00     0.042 C 
HETATM    6  C   LIG     1      14.850  31.313  19.964  1.00  0.00     0.042 C 
ENDBRANCH   2   3
ENDBRANCH   1   2
BRANCH   1   7
HETATM    7  C   LIG     1      15.815  31.584  14.688  1.00  0.00     0.071 C 
HETATM    8  C   LIG     1      16.134  32.255  13.340  1.00  0.00     0.050 C 
BRANCH   7   9
HETATM    9  C   LIG     1      14.893  30.391  14.468  1.00  0.00    -0.000 C 
HETATM   10  C   LIG     1      15.342  29.215  14.015  1.00  0.00     0.010 C 
ENDBRANCH   7   9
BRANCH   7  11
HETATM   11  O   LIG     1      17.033  31.134  15.235  1.00  0.00    -0.386 OA
HETATM   12  H   LIG     1      17.292  31.759  15.964  1.00  0.00     0.211 HD
ENDBRANCH   7  11
ENDBRANCH   1   7
TORSDOF 5
ENDMDL
MODEL 16
REMARK VINA RESULT:      -4.7      1.976      3.848
REMARK  5 active torsions:
REMARK  status: ('A' for Active; 'I' for Inactive)
REMARK    1  A    between atoms: C_4  and  C_5 
REMARK    2  A    between atoms: C_5  and  C_6 
REMARK    3  A    between atoms: C_6  and  C_7 
REMARK    4  A    between atoms: C_7  and  C_10 
REMARK    5  A    between atoms: C_7  and  O_9 
ROOT
HETATM    1  C   LIG     1      18.167  38.089  20.669  1.00  0.00     0.045 C 
ENDROOT
BRANCH   1   2
HETATM    2  C   LIG     1      18.298  36.562  20.872  1.00  0.00     0.030 C 
BRANCH   2   3
HETATM    3  C   LIG     1      16.988  35.833  20.670  1.00  0.00    -0.025 C 
HETATM    4  C   LIG     1      16.394  35.104  21.639  1.00  0.00    -0.091 C 
HETATM    5  C   LIG     1      15.088  34.419  21.330  1.00  0.00     0.042 C 
HETATM    6  C   LIG     1      17.006  34.965  23.012  1.00  0.00     0.042 C 
ENDBRANCH   2   3
ENDBRANCH   1   2
BRANCH   1   7
HETATM    7  C   LIG     1      17.968  38.924  21.970  1.00  0.00     0.071 C 
HETATM    8  C   LIG     1      18.609  38.220  23.179  1.00  0.00     0.050 C 
BRANCH   7   9
HETATM    9  C   LIG     1      16.488  39.165  22.235  1.00  0.00    -0.000 C 
HETATM   10  C   LIG     1      15.766  38.371  23.034  1.00  0.00     0.010 C 
ENDBRANCH   7   9
BRANCH   7  11
HETATM   11  O   LIG     1      18.619  40.165  21.810  1.00  0.00    -0.386 OA
HETATM   12  H   LIG     1      18.218  40.807  22.455  1.00  0.00     0.211 HD
ENDBRANCH   7  11
ENDBRANCH   1   7
TORSDOF 5
ENDMDL
MODEL 17
REMARK VINA RESULT:      -4.7      5.221      7.078
REMARK  5 active torsions:
REMARK  status: ('A' for Active; 'I' for Inactive)
REMARK    1  A    between atoms: C_4  and  C_5 
REMARK    2  A    between atoms: C_5  and  C_6 
REMARK    3  A    between atoms: C_6  and  C_7 
REMARK    4  A    between atoms: C_7  and  C_10 
REMARK    5  A    between atoms: C_7  and  O_9 
ROOT
HETATM    1  C   LIG     1      15.385  32.206  18.850  1.00  0.00     0.045 C 
ENDROOT
BRANCH   1   2
HETATM    2  C   LIG     1      15.000  33.063  20.079  1.00  0.00     0.030 C 
BRANCH   2   3
HETATM    3  C   LIG     1      16.170  33.844  20.634  1.00  0.00    -0.025 C 
HETATM    4  C   LIG     1      16.045  35.078  21.168  1.00  0.00    -0.091 C 
HETATM    5  C   LIG     1      17.277  35.766  21.694  1.00  0.00     0.042 C 
HETATM    6  C   LIG     1      14.707  35.774  21.247  1.00  0.00     0.042 C 
ENDBRANCH   2   3
ENDBRANCH   1   2
BRANCH   1   7
HETATM    7  C   LIG     1      14.842  32.716  17.480  1.00  0.00     0.071 C 
HETATM    8  C   LIG     1      13.530  32.003  17.109  1.00  0.00     0.050 C 
BRANCH   7   9
HETATM    9  C   LIG     1      15.876  32.508  16.381  1.00  0.00    -0.000 C 
HETATM   10  C   LIG     1      15.565  31.952  15.203  1.00  0.00     0.010 C 
ENDBRANCH   7   9
BRANCH   7  11
HETATM   11  O   LIG     1      14.558  34.092  17.594  1.00  0.00    -0.386 OA
HETATM   12  H   LIG     1      15.367  34.597  17.314  1.00  0.00     0.211 HD
ENDBRANCH   7  11
ENDBRANCH   1   7
TORSDOF 5
ENDMDL
MODEL 18
REMARK VINA RESULT:      -4.7      8.594     10.576
REMARK  5 active torsions:
REMARK  status: ('A' for Active; 'I' for Inactive)
REMARK    1  A    between atoms: C_4  and  C_5 
REMARK    2  A    between atoms: C_5  and  C_6 
REMARK    3  A    between atoms: C_6  and  C_7 
REMARK    4  A    between atoms: C_7  and  C_10 
REMARK    5  A    between atoms: C_7  and  O_9 
ROOT
HETATM    1  C   LIG     1      16.405  32.583  13.767  1.00  0.00     0.045 C 
ENDROOT
BRANCH   1   2
HETATM    2  C   LIG     1      15.871  31.633  14.864  1.00  0.00     0.030 C 
BRANCH   2   3
HETATM    3  C   LIG     1      15.059  30.489  14.300  1.00  0.00    -0.025 C 
HETATM    4  C   LIG     1      13.884  30.087  14.830  1.00  0.00    -0.091 C 
HETATM    5  C   LIG     1      13.157  28.935  14.186  1.00  0.00     0.042 C 
HETATM    6  C   LIG     1      13.291  30.764  16.042  1.00  0.00     0.042 C 
ENDBRANCH   2   3
ENDBRANCH   1   2
BRANCH   1   7
HETATM    7  C   LIG     1      17.670  33.408  14.151  1.00  0.00     0.071 C 
HETATM    8  C   LIG     1      17.280  34.713  14.868  1.00  0.00     0.050 C 
BRANCH   7   9
HETATM    9  C   LIG     1      18.503  33.724  12.915  1.00  0.00    -0.000 C 
HETATM   10  C   LIG     1      19.839  33.792  12.950  1.00  0.00     0.010 C 
ENDBRANCH   7   9
BRANCH   7  11
HETATM   11  O   LIG     1      18.446  32.647  15.050  1.00  0.00    -0.386 OA
HETATM   12  H   LIG     1      18.620  31.762  14.632  1.00  0.00     0.211 HD
ENDBRANCH   7  11
ENDBRANCH   1   7
TORSDOF 5
ENDMDL
MODEL 19
REMARK VINA RESULT:      -4.5      8.775     10.602
REMARK  5 active torsions:
REMARK  status: ('A' for Active; 'I' for Inactive)
REMARK    1  A    between atoms: C_4  and  C_5 
REMARK    2  A    between atoms: C_5  and  C_6 
REMARK    3  A    between atoms: C_6  and  C_7 
REMARK    4  A    between atoms: C_7  and  C_10 
REMARK    5  A    between atoms: C_7  and  O_9 
ROOT
HETATM    1  C   LIG     1      17.761  34.058  13.702  1.00  0.00     0.045 C 
ENDROOT
BRANCH   1   2
HETATM    2  C   LIG     1      17.785  32.921  14.749  1.00  0.00     0.030 C 
BRANCH   2   3
HETATM    3  C   LIG     1      16.524  32.867  15.581  1.00  0.00    -0.025 C 
HETATM    4  C   LIG     1      15.533  31.977  15.360  1.00  0.00    -0.091 C 
HETATM    5  C   LIG     1      14.318  32.010  16.251  1.00  0.00     0.042 C 
HETATM    6  C   LIG     1      15.618  30.958  14.248  1.00  0.00     0.042 C 
ENDBRANCH   2   3
ENDBRANCH   1   2
BRANCH   1   7
HETATM    7  C   LIG     1      18.623  33.815  12.427  1.00  0.00     0.071 C 
HETATM    8  C   LIG     1      20.125  33.881  12.757  1.00  0.00     0.050 C 
BRANCH   7   9
HETATM    9  C   LIG     1      18.284  34.834  11.346  1.00  0.00    -0.000 C 
HETATM   10  C   LIG     1      19.067  35.031  10.278  1.00  0.00     0.010 C 
ENDBRANCH   7   9
BRANCH   7  11
HETATM   11  O   LIG     1      18.353  32.519  11.943  1.00  0.00    -0.386 OA
HETATM   12  H   LIG     1      17.369  32.379  11.974  1.00  0.00     0.211 HD
ENDBRANCH   7  11
ENDBRANCH   1   7
TORSDOF 5
ENDMDL
MODEL 20
REMARK VINA RESULT:      -4.5      8.832     11.206
REMARK  5 active torsions:
REMARK  status: ('A' for Active; 'I' for Inactive)
REMARK    1  A    between atoms: C_4  and  C_5 
REMARK    2  A    between atoms: C_5  and  C_6 
REMARK    3  A    between atoms: C_6  and  C_7 
REMARK    4  A    between atoms: C_7  and  C_10 
REMARK    5  A    between atoms: C_7  and  O_9 
ROOT
HETATM    1  C   LIG     1      19.293  34.382  11.762  1.00  0.00     0.045 C 
ENDROOT
BRANCH   1   2
HETATM    2  C   LIG     1      18.475  33.197  12.324  1.00  0.00     0.030 C 
BRANCH   2   3
HETATM    3  C   LIG     1      17.945  33.461  13.716  1.00  0.00    -0.025 C 
HETATM    4  C   LIG     1      16.843  32.860  14.211  1.00  0.00    -0.091 C 
HETATM    5  C   LIG     1      16.404  33.196  15.613  1.00  0.00     0.042 C 
HETATM    6  C   LIG     1      16.049  31.867  13.396  1.00  0.00     0.042 C 
ENDBRANCH   2   3
ENDBRANCH   1   2
BRANCH   1   7
HETATM    7  C   LIG     1      20.798  34.089  11.487  1.00  0.00     0.071 C 
HETATM    8  C   LIG     1      20.975  32.729  10.788  1.00  0.00     0.050 C 
BRANCH   7   9
HETATM    9  C   LIG     1      21.598  34.113  12.784  1.00  0.00    -0.000 C 
HETATM   10  C   LIG     1      22.411  35.126  13.104  1.00  0.00     0.010 C 
ENDBRANCH   7   9
BRANCH   7  11
HETATM   11  O   LIG     1      21.297  35.079  10.617  1.00  0.00    -0.386 OA
HETATM   12  H   LIG     1      21.370  34.681   9.709  1.00  0.00     0.211 HD
ENDBRANCH   7  11
ENDBRANCH   1   7
TORSDOF 5
ENDMDL
