MODEL 1
REMARK VINA RESULT:      -3.6      0.000      0.000
REMARK  1 active torsions:
REMARK  status: ('A' for Active; 'I' for Inactive)
REMARK    1  A    between atoms: C_2  and  C_4 
ROOT
HETATM    1  C   LIG     1      17.473  37.971  25.498  1.00  0.00     0.022 C 
HETATM    2  C   LIG     1      16.798  37.343  24.280  1.00  0.00     0.063 C 
HETATM    3 BR   LIG     1      17.344  38.303  22.682  1.00  0.00    -0.091 Br
ENDROOT
BRANCH   2   4
HETATM    4  C   LIG     1      17.154  35.860  24.129  1.00  0.00     0.100 C 
HETATM    5 BR   LIG     1      17.618  35.059  25.835  1.00  0.00    -0.095 Br
ENDBRANCH   2   4
TORSDOF 1
ENDMDL
MODEL 2
REMARK VINA RESULT:      -3.5      1.538      2.615
REMARK  1 active torsions:
REMARK  status: ('A' for Active; 'I' for Inactive)
REMARK    1  A    between atoms: C_2  and  C_4 
ROOT
HETATM    1  C   LIG     1      17.382  37.924  25.692  1.00  0.00     0.022 C 
HETATM    2  C   LIG     1      17.664  36.812  24.682  1.00  0.00     0.063 C 
HETATM    3 BR   LIG     1      17.473  35.090  25.559  1.00  0.00    -0.091 Br
ENDROOT
BRANCH   2   4
HETATM    4  C   LIG     1      16.718  36.877  23.478  1.00  0.00     0.100 C 
HETATM    5 BR   LIG     1      16.877  35.299  22.358  1.00  0.00    -0.095 Br
ENDBRANCH   2   4
TORSDOF 1
ENDMDL
MODEL 3
REMARK VINA RESULT:      -3.5      1.455      2.082
REMARK  1 active torsions:
REMARK  status: ('A' for Active; 'I' for Inactive)
REMARK    1  A    between atoms: C_2  and  C_4 
ROOT
HETATM    1  C   LIG     1      15.714  37.708  22.914  1.00  0.00     0.022 C 
HETATM    2  C   LIG     1      17.180  37.738  23.345  1.00  0.00     0.063 C 
HETATM    3 BR   LIG     1      18.164  38.938  22.176  1.00  0.00    -0.091 Br
ENDROOT
BRANCH   2   4
HETATM    4  C   LIG     1      17.341  38.199  24.798  1.00  0.00     0.100 C 
HETATM    5 BR   LIG     1      18.146  36.819  25.900  1.00  0.00    -0.095 Br
ENDBRANCH   2   4
TORSDOF 1
ENDMDL
MODEL 4
REMARK VINA RESULT:      -3.5      1.701      2.009
REMARK  1 active torsions:
REMARK  status: ('A' for Active; 'I' for Inactive)
REMARK    1  A    between atoms: C_2  and  C_4 
ROOT
HETATM    1  C   LIG     1      17.278  38.146  22.598  1.00  0.00     0.022 C 
HETATM    2  C   LIG     1      16.699  37.028  23.464  1.00  0.00     0.063 C 
HETATM    3 BR   LIG     1      16.909  35.332  22.539  1.00  0.00    -0.091 Br
ENDROOT
BRANCH   2   4
HETATM    4  C   LIG     1      17.385  36.948  24.832  1.00  0.00     0.100 C 
HETATM    5 BR   LIG     1      17.486  35.120  25.476  1.00  0.00    -0.095 Br
ENDBRANCH   2   4
TORSDOF 1
ENDMDL
MODEL 5
REMARK VINA RESULT:      -3.5      1.155      1.976
REMARK  1 active torsions:
REMARK  status: ('A' for Active; 'I' for Inactive)
REMARK    1  A    between atoms: C_2  and  C_4 
ROOT
HETATM    1  C   LIG     1      16.959  35.257  22.995  1.00  0.00     0.022 C 
HETATM    2  C   LIG     1      17.194  36.687  23.479  1.00  0.00     0.063 C 
HETATM    3 BR   LIG     1      15.758  37.823  22.830  1.00  0.00    -0.091 Br
ENDROOT
BRANCH   2   4
HETATM    4  C   LIG     1      17.258  36.772  25.007  1.00  0.00     0.100 C 
HETATM    5 BR   LIG     1      17.606  35.036  25.805  1.00  0.00    -0.095 Br
ENDBRANCH   2   4
TORSDOF 1
ENDMDL
MODEL 6
REMARK VINA RESULT:      -3.4      0.991      3.348
REMARK  1 active torsions:
REMARK  status: ('A' for Active; 'I' for Inactive)
REMARK    1  A    between atoms: C_2  and  C_4 
ROOT
HETATM    1  C   LIG     1      17.167  35.694  23.945  1.00  0.00     0.022 C 
HETATM    2  C   LIG     1      17.204  36.830  24.967  1.00  0.00     0.063 C 
HETATM    3 BR   LIG     1      18.299  36.292  26.479  1.00  0.00    -0.091 Br
ENDROOT
BRANCH   2   4
HETATM    4  C   LIG     1      17.768  38.123  24.367  1.00  0.00     0.100 C 
HETATM    5 BR   LIG     1      16.994  38.498  22.626  1.00  0.00    -0.095 Br
ENDBRANCH   2   4
TORSDOF 1
ENDMDL
MODEL 7
REMARK VINA RESULT:      -3.4      4.203      5.033
REMARK  1 active torsions:
REMARK  status: ('A' for Active; 'I' for Inactive)
REMARK    1  A    between atoms: C_2  and  C_4 
ROOT
HETATM    1  C   LIG     1      20.349  38.834  19.487  1.00  0.00     0.022 C 
HETATM    2  C   LIG     1      18.936  38.697  20.053  1.00  0.00     0.063 C 
HETATM    3 BR   LIG     1      18.420  36.824  20.031  1.00  0.00    -0.091 Br
ENDROOT
BRANCH   2   4
HETATM    4  C   LIG     1      18.838  39.235  21.484  1.00  0.00     0.100 C 
HETATM    5 BR   LIG     1      17.181  38.694  22.338  1.00  0.00    -0.095 Br
ENDBRANCH   2   4
TORSDOF 1
ENDMDL
MODEL 8
REMARK VINA RESULT:      -3.3      1.931      3.539
REMARK  1 active torsions:
REMARK  status: ('A' for Active; 'I' for Inactive)
REMARK    1  A    between atoms: C_2  and  C_4 
ROOT
HETATM    1  C   LIG     1      16.837  36.399  22.678  1.00  0.00     0.022 C 
HETATM    2  C   LIG     1      16.452  37.654  23.461  1.00  0.00     0.063 C 
HETATM    3 BR   LIG     1      17.459  37.703  25.121  1.00  0.00    -0.091 Br
ENDROOT
BRANCH   2   4
HETATM    4  C   LIG     1      16.724  38.933  22.662  1.00  0.00     0.100 C 
HETATM    5 BR   LIG     1      18.250  38.727  21.480  1.00  0.00    -0.095 Br
ENDBRANCH   2   4
TORSDOF 1
ENDMDL
MODEL 9
REMARK VINA RESULT:      -3.2      2.299      2.666
REMARK  1 active torsions:
REMARK  status: ('A' for Active; 'I' for Inactive)
REMARK    1  A    between atoms: C_2  and  C_4 
ROOT
HETATM    1  C   LIG     1      18.072  38.678  22.158  1.00  0.00     0.022 C 
HETATM    2  C   LIG     1      17.024  37.565  22.147  1.00  0.00     0.063 C 
HETATM    3 BR   LIG     1      17.500  36.256  20.793  1.00  0.00    -0.091 Br
ENDROOT
BRANCH   2   4
HETATM    4  C   LIG     1      16.911  36.871  23.508  1.00  0.00     0.100 C 
HETATM    5 BR   LIG     1      17.486  38.033  24.953  1.00  0.00    -0.095 Br
ENDBRANCH   2   4
TORSDOF 1
ENDMDL
MODEL 10
REMARK VINA RESULT:      -3.2      3.542      4.440
REMARK  1 active torsions:
REMARK  status: ('A' for Active; 'I' for Inactive)
REMARK    1  A    between atoms: C_2  and  C_4 
ROOT
HETATM    1  C   LIG     1      16.428  35.530  20.481  1.00  0.00     0.022 C 
HETATM    2  C   LIG     1      17.602  36.301  21.083  1.00  0.00     0.063 C 
HETATM    3 BR   LIG     1      18.763  36.914  19.651  1.00  0.00    -0.091 Br
ENDROOT
BRANCH   2   4
HETATM    4  C   LIG     1      17.135  37.504  21.909  1.00  0.00     0.100 C 
HETATM    5 BR   LIG     1      18.305  39.034  21.668  1.00  0.00    -0.095 Br
ENDBRANCH   2   4
TORSDOF 1
ENDMDL
MODEL 11
REMARK VINA RESULT:      -3.1      3.167      3.993
REMARK  1 active torsions:
REMARK  status: ('A' for Active; 'I' for Inactive)
REMARK    1  A    between atoms: C_2  and  C_4 
ROOT
HETATM    1  C   LIG     1      15.742  37.809  22.811  1.00  0.00     0.022 C 
HETATM    2  C   LIG     1      17.232  37.683  22.492  1.00  0.00     0.063 C 
HETATM    3 BR   LIG     1      17.463  36.447  21.010  1.00  0.00    -0.091 Br
ENDROOT
BRANCH   2   4
HETATM    4  C   LIG     1      17.857  39.034  22.129  1.00  0.00     0.100 C 
HETATM    5 BR   LIG     1      18.887  38.927  20.487  1.00  0.00    -0.095 Br
ENDBRANCH   2   4
TORSDOF 1
ENDMDL
MODEL 12
REMARK VINA RESULT:      -3.1      1.886      2.145
REMARK  1 active torsions:
REMARK  status: ('A' for Active; 'I' for Inactive)
REMARK    1  A    between atoms: C_2  and  C_4 
ROOT
HETATM    1  C   LIG     1      17.194  37.454  24.402  1.00  0.00     0.022 C 
HETATM    2  C   LIG     1      16.570  38.035  23.134  1.00  0.00     0.063 C 
HETATM    3 BR   LIG     1      17.945  38.943  22.105  1.00  0.00    -0.091 Br
ENDROOT
BRANCH   2   4
HETATM    4  C   LIG     1      15.920  36.951  22.267  1.00  0.00     0.100 C 
HETATM    5 BR   LIG     1      16.863  35.260  22.411  1.00  0.00    -0.095 Br
ENDBRANCH   2   4
TORSDOF 1
ENDMDL
MODEL 13
REMARK VINA RESULT:      -2.9      9.110     10.043
REMARK  1 active torsions:
REMARK  status: ('A' for Active; 'I' for Inactive)
REMARK    1  A    between atoms: C_2  and  C_4 
ROOT
HETATM    1  C   LIG     1      13.577  31.082  16.664  1.00  0.00     0.022 C 
HETATM    2  C   LIG     1      14.349  32.352  17.023  1.00  0.00     0.063 C 
HETATM    3 BR   LIG     1      15.023  32.197  18.838  1.00  0.00    -0.091 Br
ENDROOT
BRANCH   2   4
HETATM    4  C   LIG     1      15.519  32.601  16.065  1.00  0.00     0.100 C 
HETATM    5 BR   LIG     1      15.541  31.313  14.613  1.00  0.00    -0.095 Br
ENDBRANCH   2   4
TORSDOF 1
ENDMDL
MODEL 14
REMARK VINA RESULT:      -2.9     10.393     10.943
REMARK  1 active torsions:
REMARK  status: ('A' for Active; 'I' for Inactive)
REMARK    1  A    between atoms: C_2  and  C_4 
ROOT
HETATM    1  C   LIG     1      17.023  32.303  15.276  1.00  0.00     0.022 C 
HETATM    2  C   LIG     1      15.528  32.069  15.062  1.00  0.00     0.063 C 
HETATM    3 BR   LIG     1      15.272  30.367  14.162  1.00  0.00    -0.091 Br
ENDROOT
BRANCH   2   4
HETATM    4  C   LIG     1      14.754  32.066  16.385  1.00  0.00     0.100 C 
HETATM    5 BR   LIG     1      13.214  30.887  16.308  1.00  0.00    -0.095 Br
ENDBRANCH   2   4
TORSDOF 1
ENDMDL
MODEL 15
REMARK VINA RESULT:      -2.9      9.396     10.179
REMARK  1 active torsions:
REMARK  status: ('A' for Active; 'I' for Inactive)
REMARK    1  A    between atoms: C_2  and  C_4 
ROOT
HETATM    1  C   LIG     1      12.862  30.728  15.993  1.00  0.00     0.022 C 
HETATM    2  C   LIG     1      14.283  31.136  16.383  1.00  0.00     0.063 C 
HETATM    3 BR   LIG     1      15.374  31.256  14.780  1.00  0.00    -0.091 Br
ENDROOT
BRANCH   2   4
HETATM    4  C   LIG     1      14.311  32.479  17.120  1.00  0.00     0.100 C 
HETATM    5 BR   LIG     1      15.112  32.312  18.880  1.00  0.00    -0.095 Br
ENDBRANCH   2   4
TORSDOF 1
ENDMDL
MODEL 16
REMARK VINA RESULT:      -2.9     12.090     12.613
REMARK  1 active torsions:
REMARK  status: ('A' for Active; 'I' for Inactive)
REMARK    1  A    between atoms: C_2  and  C_4 
ROOT
HETATM    1  C   LIG     1      15.294  28.434  13.703  1.00  0.00     0.022 C 
HETATM    2  C   LIG     1      14.967  29.702  14.492  1.00  0.00     0.063 C 
HETATM    3 BR   LIG     1      15.639  31.246  13.524  1.00  0.00    -0.091 Br
ENDROOT
BRANCH   2   4
HETATM    4  C   LIG     1      13.460  29.862  14.721  1.00  0.00     0.100 C 
HETATM    5 BR   LIG     1      13.086  30.898  16.318  1.00  0.00    -0.095 Br
ENDBRANCH   2   4
TORSDOF 1
ENDMDL
MODEL 17
REMARK VINA RESULT:      -2.9     10.726     11.314
REMARK  1 active torsions:
REMARK  status: ('A' for Active; 'I' for Inactive)
REMARK    1  A    between atoms: C_2  and  C_4 
ROOT
HETATM    1  C   LIG     1      16.111  32.134  13.501  1.00  0.00     0.022 C 
HETATM    2  C   LIG     1      15.769  31.406  14.801  1.00  0.00     0.063 C 
HETATM    3 BR   LIG     1      15.453  32.714  16.201  1.00  0.00    -0.091 Br
ENDROOT
BRANCH   2   4
HETATM    4  C   LIG     1      14.531  30.514  14.649  1.00  0.00     0.100 C 
HETATM    5 BR   LIG     1      13.275  30.783  16.104  1.00  0.00    -0.095 Br
ENDBRANCH   2   4
TORSDOF 1
ENDMDL
MODEL 18
REMARK VINA RESULT:      -2.9     10.437     11.387
REMARK  1 active torsions:
REMARK  status: ('A' for Active; 'I' for Inactive)
REMARK    1  A    between atoms: C_2  and  C_4 
ROOT
HETATM    1  C   LIG     1      13.010  30.607  15.682  1.00  0.00     0.022 C 
HETATM    2  C   LIG     1      14.533  30.722  15.610  1.00  0.00     0.063 C 
HETATM    3 BR   LIG     1      15.119  30.307  13.805  1.00  0.00    -0.091 Br
ENDROOT
BRANCH   2   4
HETATM    4  C   LIG     1      15.019  32.124  15.993  1.00  0.00     0.100 C 
HETATM    5 BR   LIG     1      16.715  32.547  15.148  1.00  0.00    -0.095 Br
ENDBRANCH   2   4
TORSDOF 1
ENDMDL
MODEL 19
REMARK VINA RESULT:      -2.9      9.110      9.836
REMARK  1 active torsions:
REMARK  status: ('A' for Active; 'I' for Inactive)
REMARK    1  A    between atoms: C_2  and  C_4 
ROOT
HETATM    1  C   LIG     1      15.103  32.475  18.456  1.00  0.00     0.022 C 
HETATM    2  C   LIG     1      14.492  32.564  17.058  1.00  0.00     0.063 C 
HETATM    3 BR   LIG     1      15.919  32.594  15.740  1.00  0.00    -0.091 Br
ENDROOT
BRANCH   2   4
HETATM    4  C   LIG     1      13.555  31.387  16.766  1.00  0.00     0.100 C 
HETATM    5 BR   LIG     1      14.075  30.444  15.150  1.00  0.00    -0.095 Br
ENDBRANCH   2   4
TORSDOF 1
ENDMDL
MODEL 20
REMARK VINA RESULT:      -2.8     10.858     11.655
REMARK  1 active torsions:
REMARK  status: ('A' for Active; 'I' for Inactive)
REMARK    1  A    between atoms: C_2  and  C_4 
ROOT
HETATM    1  C   LIG     1      14.817  30.044  13.928  1.00  0.00     0.022 C 
HETATM    2  C   LIG     1      15.623  31.048  14.751  1.00  0.00     0.063 C 
HETATM    3 BR   LIG     1      16.347  32.407  13.567  1.00  0.00    -0.091 Br
ENDROOT
BRANCH   2   4
HETATM    4  C   LIG     1      14.770  31.719  15.833  1.00  0.00     0.100 C 
HETATM    5 BR   LIG     1      13.106  30.763  16.125  1.00  0.00    -0.095 Br
ENDBRANCH   2   4
TORSDOF 1
ENDMDL
