REMARK  2 active torsions:
REMARK  status: ('A' for Active; 'I' for Inactive)
REMARK    1  A    between atoms: C_2  and  C_4 
REMARK    2  A    between atoms: C_4  and  O_5 
ROOT
HETATM    1  C   LIG     1      -0.633   1.338   0.237  1.00  0.00     0.011 C 
HETATM    2  C   LIG     1      -0.107  -0.101   0.327  1.00  0.00     0.001 C 
HETATM    3  C   LIG     1      -1.175  -1.088  -0.157  1.00  0.00     0.011 C 
ENDROOT
BRANCH   2   4
HETATM    4  C   LIG     1       1.188  -0.270  -0.489  1.00  0.00     0.168 C 
BRANCH   4   5
HETATM    5  O   LIG     1       2.205   0.558   0.010  1.00  0.00    -0.400 OA
HETATM    6  H   LIG     1       2.522   0.141   0.854  1.00  0.00     0.209 HD
ENDBRANCH   4   5
ENDBRANCH   2   4
TORSDOF 2
