MODEL 1
REMARK VINA RESULT:      -3.8      0.000      0.000
REMARK  2 active torsions:
REMARK  status: ('A' for Active; 'I' for Inactive)
REMARK    1  A    between atoms: C_2  and  C_4 
REMARK    2  A    between atoms: C_4  and  O_5 
ROOT
HETATM    1  C   LIG     1      18.423  36.295  26.923  1.00  0.00     0.011 C 
HETATM    2  C   LIG     1      18.013  36.229  25.445  1.00  0.00     0.001 C 
HETATM    3  C   LIG     1      17.287  34.912  25.153  1.00  0.00     0.011 C 
ENDROOT
BRANCH   2   4
HETATM    4  C   LIG     1      17.124  37.427  25.062  1.00  0.00     0.168 C 
BRANCH   4   5
HETATM    5  O   LIG     1      17.452  38.557  25.827  1.00  0.00    -0.400 OA
HETATM    6  H   LIG     1      16.729  39.222  25.676  1.00  0.00     0.209 HD
ENDBRANCH   4   5
ENDBRANCH   2   4
TORSDOF 2
ENDMDL
MODEL 2
REMARK VINA RESULT:      -3.8      1.199      1.897
REMARK  2 active torsions:
REMARK  status: ('A' for Active; 'I' for Inactive)
REMARK    1  A    between atoms: C_2  and  C_4 
REMARK    2  A    between atoms: C_4  and  O_5 
ROOT
HETATM    1  C   LIG     1      17.545  34.851  25.583  1.00  0.00     0.011 C 
HETATM    2  C   LIG     1      17.444  36.381  25.643  1.00  0.00     0.001 C 
HETATM    3  C   LIG     1      18.737  36.977  26.208  1.00  0.00     0.011 C 
ENDROOT
BRANCH   2   4
HETATM    4  C   LIG     1      17.144  36.971  24.252  1.00  0.00     0.168 C 
BRANCH   4   5
HETATM    5  O   LIG     1      16.084  37.888  24.316  1.00  0.00    -0.400 OA
HETATM    6  H   LIG     1      16.348  38.667  23.758  1.00  0.00     0.209 HD
ENDBRANCH   4   5
ENDBRANCH   2   4
TORSDOF 2
ENDMDL
MODEL 3
REMARK VINA RESULT:      -3.8      6.051      6.694
REMARK  2 active torsions:
REMARK  status: ('A' for Active; 'I' for Inactive)
REMARK    1  A    between atoms: C_2  and  C_4 
REMARK    2  A    between atoms: C_4  and  O_5 
ROOT
HETATM    1  C   LIG     1      18.550  36.921  19.965  1.00  0.00     0.011 C 
HETATM    2  C   LIG     1      18.974  38.395  19.896  1.00  0.00     0.001 C 
HETATM    3  C   LIG     1      18.626  39.110  21.206  1.00  0.00     0.011 C 
ENDROOT
BRANCH   2   4
HETATM    4  C   LIG     1      20.480  38.524  19.599  1.00  0.00     0.168 C 
BRANCH   4   5
HETATM    5  O   LIG     1      20.735  39.642  18.790  1.00  0.00    -0.400 OA
HETATM    6  H   LIG     1      21.395  39.353  18.106  1.00  0.00     0.209 HD
ENDBRANCH   4   5
ENDBRANCH   2   4
TORSDOF 2
ENDMDL
MODEL 4
REMARK VINA RESULT:      -3.6      4.556      5.067
REMARK  2 active torsions:
REMARK  status: ('A' for Active; 'I' for Inactive)
REMARK    1  A    between atoms: C_2  and  C_4 
REMARK    2  A    between atoms: C_4  and  O_5 
ROOT
HETATM    1  C   LIG     1      17.532  36.223  20.758  1.00  0.00     0.011 C 
HETATM    2  C   LIG     1      16.598  35.234  21.469  1.00  0.00     0.001 C 
HETATM    3  C   LIG     1      16.950  35.147  22.958  1.00  0.00     0.011 C 
ENDROOT
BRANCH   2   4
HETATM    4  C   LIG     1      15.123  35.638  21.290  1.00  0.00     0.168 C 
BRANCH   4   5
HETATM    5  O   LIG     1      14.272  34.555  21.558  1.00  0.00    -0.400 OA
HETATM    6  H   LIG     1      14.230  34.014  20.726  1.00  0.00     0.209 HD
ENDBRANCH   4   5
ENDBRANCH   2   4
TORSDOF 2
ENDMDL
MODEL 5
REMARK VINA RESULT:      -3.5      5.454      5.991
REMARK  2 active torsions:
REMARK  status: ('A' for Active; 'I' for Inactive)
REMARK    1  A    between atoms: C_2  and  C_4 
REMARK    2  A    between atoms: C_4  and  O_5 
ROOT
HETATM    1  C   LIG     1      20.367  38.866  19.512  1.00  0.00     0.011 C 
HETATM    2  C   LIG     1      18.953  38.311  19.734  1.00  0.00     0.001 C 
HETATM    3  C   LIG     1      18.953  36.785  19.588  1.00  0.00     0.011 C 
ENDROOT
BRANCH   2   4
HETATM    4  C   LIG     1      18.409  38.716  21.117  1.00  0.00     0.168 C 
BRANCH   4   5
HETATM    5  O   LIG     1      19.385  39.401  21.857  1.00  0.00    -0.400 OA
HETATM    6  H   LIG     1      20.257  39.215  21.417  1.00  0.00     0.209 HD
ENDBRANCH   4   5
ENDBRANCH   2   4
TORSDOF 2
ENDMDL
MODEL 6
REMARK VINA RESULT:      -3.5      3.163      3.914
REMARK  2 active torsions:
REMARK  status: ('A' for Active; 'I' for Inactive)
REMARK    1  A    between atoms: C_2  and  C_4 
REMARK    2  A    between atoms: C_4  and  O_5 
ROOT
HETATM    1  C   LIG     1      18.333  38.945  22.089  1.00  0.00     0.011 C 
HETATM    2  C   LIG     1      17.078  38.063  22.082  1.00  0.00     0.001 C 
HETATM    3  C   LIG     1      17.363  36.738  21.366  1.00  0.00     0.011 C 
ENDROOT
BRANCH   2   4
HETATM    4  C   LIG     1      16.578  37.800  23.515  1.00  0.00     0.168 C 
BRANCH   4   5
HETATM    5  O   LIG     1      15.206  38.073  23.624  1.00  0.00    -0.400 OA
HETATM    6  H   LIG     1      14.942  37.833  24.551  1.00  0.00     0.209 HD
ENDBRANCH   4   5
ENDBRANCH   2   4
TORSDOF 2
ENDMDL
MODEL 7
REMARK VINA RESULT:      -3.4      2.198      2.502
REMARK  2 active torsions:
REMARK  status: ('A' for Active; 'I' for Inactive)
REMARK    1  A    between atoms: C_2  and  C_4 
REMARK    2  A    between atoms: C_4  and  O_5 
ROOT
HETATM    1  C   LIG     1      17.175  37.802  25.076  1.00  0.00     0.011 C 
HETATM    2  C   LIG     1      17.218  37.085  23.720  1.00  0.00     0.001 C 
HETATM    3  C   LIG     1      17.088  35.570  23.916  1.00  0.00     0.011 C 
ENDROOT
BRANCH   2   4
HETATM    4  C   LIG     1      16.110  37.601  22.783  1.00  0.00     0.168 C 
BRANCH   4   5
HETATM    5  O   LIG     1      15.020  38.089  23.520  1.00  0.00    -0.400 OA
HETATM    6  H   LIG     1      15.188  39.057  23.668  1.00  0.00     0.209 HD
ENDBRANCH   4   5
ENDBRANCH   2   4
TORSDOF 2
ENDMDL
MODEL 8
REMARK VINA RESULT:      -3.3      3.767      4.325
REMARK  2 active torsions:
REMARK  status: ('A' for Active; 'I' for Inactive)
REMARK    1  A    between atoms: C_2  and  C_4 
REMARK    2  A    between atoms: C_4  and  O_5 
ROOT
HETATM    1  C   LIG     1      17.522  36.587  20.974  1.00  0.00     0.011 C 
HETATM    2  C   LIG     1      17.128  37.400  22.215  1.00  0.00     0.001 C 
HETATM    3  C   LIG     1      17.477  38.878  22.014  1.00  0.00     0.011 C 
ENDROOT
BRANCH   2   4
HETATM    4  C   LIG     1      15.629  37.241  22.529  1.00  0.00     0.168 C 
BRANCH   4   5
HETATM    5  O   LIG     1      15.231  38.134  23.536  1.00  0.00    -0.400 OA
HETATM    6  H   LIG     1      14.807  37.587  24.248  1.00  0.00     0.209 HD
ENDBRANCH   4   5
ENDBRANCH   2   4
TORSDOF 2
ENDMDL
MODEL 9
REMARK VINA RESULT:      -3.3      4.842      5.486
REMARK  2 active torsions:
REMARK  status: ('A' for Active; 'I' for Inactive)
REMARK    1  A    between atoms: C_2  and  C_4 
REMARK    2  A    between atoms: C_4  and  O_5 
ROOT
HETATM    1  C   LIG     1      19.094  36.879  19.608  1.00  0.00     0.011 C 
HETATM    2  C   LIG     1      18.383  38.057  20.287  1.00  0.00     0.001 C 
HETATM    3  C   LIG     1      17.607  37.572  21.517  1.00  0.00     0.011 C 
ENDROOT
BRANCH   2   4
HETATM    4  C   LIG     1      19.388  39.154  20.687  1.00  0.00     0.168 C 
BRANCH   4   5
HETATM    5  O   LIG     1      19.358  39.379  22.071  1.00  0.00    -0.400 OA
HETATM    6  H   LIG     1      19.085  40.326  22.200  1.00  0.00     0.209 HD
ENDBRANCH   4   5
ENDBRANCH   2   4
TORSDOF 2
ENDMDL
MODEL 10
REMARK VINA RESULT:      -3.2      5.020      5.537
REMARK  2 active torsions:
REMARK  status: ('A' for Active; 'I' for Inactive)
REMARK    1  A    between atoms: C_2  and  C_4 
REMARK    2  A    between atoms: C_4  and  O_5 
ROOT
HETATM    1  C   LIG     1      16.900  35.168  22.791  1.00  0.00     0.011 C 
HETATM    2  C   LIG     1      16.460  35.609  21.389  1.00  0.00     0.001 C 
HETATM    3  C   LIG     1      17.640  36.233  20.635  1.00  0.00     0.011 C 
ENDROOT
BRANCH   2   4
HETATM    4  C   LIG     1      15.880  34.426  20.591  1.00  0.00     0.168 C 
BRANCH   4   5
HETATM    5  O   LIG     1      15.609  34.801  19.267  1.00  0.00    -0.400 OA
HETATM    6  H   LIG     1      16.438  35.221  18.915  1.00  0.00     0.209 HD
ENDBRANCH   4   5
ENDBRANCH   2   4
TORSDOF 2
ENDMDL
MODEL 11
REMARK VINA RESULT:      -3.2     14.068     14.370
REMARK  2 active torsions:
REMARK  status: ('A' for Active; 'I' for Inactive)
REMARK    1  A    between atoms: C_2  and  C_4 
REMARK    2  A    between atoms: C_4  and  O_5 
ROOT
HETATM    1  C   LIG     1      15.227  28.213  13.692  1.00  0.00     0.011 C 
HETATM    2  C   LIG     1      14.870  29.550  14.355  1.00  0.00     0.001 C 
HETATM    3  C   LIG     1      15.384  30.718  13.505  1.00  0.00     0.011 C 
ENDROOT
BRANCH   2   4
HETATM    4  C   LIG     1      13.351  29.674  14.572  1.00  0.00     0.168 C 
BRANCH   4   5
HETATM    5  O   LIG     1      12.666  28.641  13.915  1.00  0.00    -0.400 OA
HETATM    6  H   LIG     1      12.192  29.057  13.148  1.00  0.00     0.209 HD
ENDBRANCH   4   5
ENDBRANCH   2   4
TORSDOF 2
ENDMDL
MODEL 12
REMARK VINA RESULT:      -3.1      5.424      6.149
REMARK  2 active torsions:
REMARK  status: ('A' for Active; 'I' for Inactive)
REMARK    1  A    between atoms: C_2  and  C_4 
REMARK    2  A    between atoms: C_4  and  O_5 
ROOT
HETATM    1  C   LIG     1      18.988  39.080  19.639  1.00  0.00     0.011 C 
HETATM    2  C   LIG     1      18.642  38.172  20.827  1.00  0.00     0.001 C 
HETATM    3  C   LIG     1      17.612  38.855  21.734  1.00  0.00     0.011 C 
ENDROOT
BRANCH   2   4
HETATM    4  C   LIG     1      18.111  36.808  20.346  1.00  0.00     0.168 C 
BRANCH   4   5
HETATM    5  O   LIG     1      18.449  36.586  19.002  1.00  0.00    -0.400 OA
HETATM    6  H   LIG     1      17.784  37.081  18.456  1.00  0.00     0.209 HD
ENDBRANCH   4   5
ENDBRANCH   2   4
TORSDOF 2
ENDMDL
MODEL 13
REMARK VINA RESULT:      -3.1      1.700      2.476
REMARK  2 active torsions:
REMARK  status: ('A' for Active; 'I' for Inactive)
REMARK    1  A    between atoms: C_2  and  C_4 
REMARK    2  A    between atoms: C_4  and  O_5 
ROOT
HETATM    1  C   LIG     1      17.125  35.726  24.109  1.00  0.00     0.011 C 
HETATM    2  C   LIG     1      17.197  37.242  23.885  1.00  0.00     0.001 C 
HETATM    3  C   LIG     1      15.998  37.714  23.055  1.00  0.00     0.011 C 
ENDROOT
BRANCH   2   4
HETATM    4  C   LIG     1      17.252  37.999  25.225  1.00  0.00     0.168 C 
BRANCH   4   5
HETATM    5  O   LIG     1      17.443  37.110  26.294  1.00  0.00    -0.400 OA
HETATM    6  H   LIG     1      16.692  37.260  26.926  1.00  0.00     0.209 HD
ENDBRANCH   4   5
ENDBRANCH   2   4
TORSDOF 2
ENDMDL
MODEL 14
REMARK VINA RESULT:      -3.1     12.847     13.317
REMARK  2 active torsions:
REMARK  status: ('A' for Active; 'I' for Inactive)
REMARK    1  A    between atoms: C_2  and  C_4 
REMARK    2  A    between atoms: C_4  and  O_5 
ROOT
HETATM    1  C   LIG     1      15.313  29.083  13.996  1.00  0.00     0.011 C 
HETATM    2  C   LIG     1      14.718  30.486  14.176  1.00  0.00     0.001 C 
HETATM    3  C   LIG     1      13.794  30.519  15.399  1.00  0.00     0.011 C 
ENDROOT
BRANCH   2   4
HETATM    4  C   LIG     1      15.827  31.545  14.314  1.00  0.00     0.168 C 
BRANCH   4   5
HETATM    5  O   LIG     1      16.338  31.900  13.057  1.00  0.00    -0.400 OA
HETATM    6  H   LIG     1      16.728  32.808  13.155  1.00  0.00     0.209 HD
ENDBRANCH   4   5
ENDBRANCH   2   4
TORSDOF 2
ENDMDL
MODEL 15
REMARK VINA RESULT:      -3.1      9.815     10.695
REMARK  2 active torsions:
REMARK  status: ('A' for Active; 'I' for Inactive)
REMARK    1  A    between atoms: C_2  and  C_4 
REMARK    2  A    between atoms: C_4  and  O_5 
ROOT
HETATM    1  C   LIG     1      15.425  31.778  15.440  1.00  0.00     0.011 C 
HETATM    2  C   LIG     1      14.280  32.035  16.429  1.00  0.00     0.001 C 
HETATM    3  C   LIG     1      13.327  30.835  16.463  1.00  0.00     0.011 C 
ENDROOT
BRANCH   2   4
HETATM    4  C   LIG     1      14.823  32.327  17.841  1.00  0.00     0.168 C 
BRANCH   4   5
HETATM    5  O   LIG     1      13.954  31.829  18.824  1.00  0.00    -0.400 OA
HETATM    6  H   LIG     1      14.144  30.857  18.904  1.00  0.00     0.209 HD
ENDBRANCH   4   5
ENDBRANCH   2   4
TORSDOF 2
ENDMDL
MODEL 16
REMARK VINA RESULT:      -3.0      4.534      5.077
REMARK  2 active torsions:
REMARK  status: ('A' for Active; 'I' for Inactive)
REMARK    1  A    between atoms: C_2  and  C_4 
REMARK    2  A    between atoms: C_4  and  O_5 
ROOT
HETATM    1  C   LIG     1      15.201  35.561  21.207  1.00  0.00     0.011 C 
HETATM    2  C   LIG     1      16.461  36.121  21.881  1.00  0.00     0.001 C 
HETATM    3  C   LIG     1      16.991  35.129  22.922  1.00  0.00     0.011 C 
ENDROOT
BRANCH   2   4
HETATM    4  C   LIG     1      17.551  36.440  20.841  1.00  0.00     0.168 C 
BRANCH   4   5
HETATM    5  O   LIG     1      17.249  35.852  19.603  1.00  0.00    -0.400 OA
HETATM    6  H   LIG     1      17.793  36.328  18.922  1.00  0.00     0.209 HD
ENDBRANCH   4   5
ENDBRANCH   2   4
TORSDOF 2
ENDMDL
MODEL 17
REMARK VINA RESULT:      -3.0      9.105      9.951
REMARK  2 active torsions:
REMARK  status: ('A' for Active; 'I' for Inactive)
REMARK    1  A    between atoms: C_2  and  C_4 
REMARK    2  A    between atoms: C_4  and  O_5 
ROOT
HETATM    1  C   LIG     1      14.934  33.873  17.020  1.00  0.00     0.011 C 
HETATM    2  C   LIG     1      15.115  32.435  17.525  1.00  0.00     0.001 C 
HETATM    3  C   LIG     1      15.207  32.417  19.055  1.00  0.00     0.011 C 
ENDROOT
BRANCH   2   4
HETATM    4  C   LIG     1      13.964  31.531  17.047  1.00  0.00     0.168 C 
BRANCH   4   5
HETATM    5  O   LIG     1      12.721  32.143  17.269  1.00  0.00    -0.400 OA
HETATM    6  H   LIG     1      12.458  32.570  16.412  1.00  0.00     0.209 HD
ENDBRANCH   4   5
ENDBRANCH   2   4
TORSDOF 2
ENDMDL
MODEL 18
REMARK VINA RESULT:      -3.0      4.342      4.841
REMARK  2 active torsions:
REMARK  status: ('A' for Active; 'I' for Inactive)
REMARK    1  A    between atoms: C_2  and  C_4 
REMARK    2  A    between atoms: C_4  and  O_5 
ROOT
HETATM    1  C   LIG     1      16.590  37.887  22.390  1.00  0.00     0.011 C 
HETATM    2  C   LIG     1      17.926  37.761  21.645  1.00  0.00     0.001 C 
HETATM    3  C   LIG     1      17.857  36.626  20.618  1.00  0.00     0.011 C 
ENDROOT
BRANCH   2   4
HETATM    4  C   LIG     1      18.303  39.085  20.956  1.00  0.00     0.168 C 
BRANCH   4   5
HETATM    5  O   LIG     1      19.693  39.281  20.974  1.00  0.00    -0.400 OA
HETATM    6  H   LIG     1      19.855  40.117  21.486  1.00  0.00     0.209 HD
ENDBRANCH   4   5
ENDBRANCH   2   4
TORSDOF 2
ENDMDL
MODEL 19
REMARK VINA RESULT:      -3.0      8.979      9.907
REMARK  2 active torsions:
REMARK  status: ('A' for Active; 'I' for Inactive)
REMARK    1  A    between atoms: C_2  and  C_4 
REMARK    2  A    between atoms: C_4  and  O_5 
ROOT
HETATM    1  C   LIG     1      13.265  31.972  16.973  1.00  0.00     0.011 C 
HETATM    2  C   LIG     1      14.763  32.177  17.235  1.00  0.00     0.001 C 
HETATM    3  C   LIG     1      15.281  33.382  16.441  1.00  0.00     0.011 C 
ENDROOT
BRANCH   2   4
HETATM    4  C   LIG     1      15.042  32.366  18.738  1.00  0.00     0.168 C 
BRANCH   4   5
HETATM    5  O   LIG     1      14.230  31.519  19.507  1.00  0.00    -0.400 OA
HETATM    6  H   LIG     1      14.387  30.596  19.174  1.00  0.00     0.209 HD
ENDBRANCH   4   5
ENDBRANCH   2   4
TORSDOF 2
ENDMDL
MODEL 20
REMARK VINA RESULT:      -2.9      2.879      3.779
REMARK  2 active torsions:
REMARK  status: ('A' for Active; 'I' for Inactive)
REMARK    1  A    between atoms: C_2  and  C_4 
REMARK    2  A    between atoms: C_4  and  O_5 
ROOT
HETATM    1  C   LIG     1      17.560  38.081  24.389  1.00  0.00     0.011 C 
HETATM    2  C   LIG     1      17.025  38.299  22.967  1.00  0.00     0.001 C 
HETATM    3  C   LIG     1      18.052  39.065  22.125  1.00  0.00     0.011 C 
ENDROOT
BRANCH   2   4
HETATM    4  C   LIG     1      16.675  36.958  22.295  1.00  0.00     0.168 C 
BRANCH   4   5
HETATM    5  O   LIG     1      16.942  35.883  23.156  1.00  0.00    -0.400 OA
HETATM    6  H   LIG     1      17.737  35.415  22.787  1.00  0.00     0.209 HD
ENDBRANCH   4   5
ENDBRANCH   2   4
TORSDOF 2
ENDMDL
