REMARK  1 active torsions:
REMARK  status: ('A' for Active; 'I' for Inactive)
REMARK    1  A    between atoms: C_2  and  C_4 
ROOT
HETATM    1  C   LIG     1      -1.940  -0.008  -0.120  1.00  0.00     0.026 C 
HETATM    2  C   LIG     1      -0.552  -0.180   0.496  1.00  0.00     0.078 C 
HETATM    3 CL   LIG     1      -0.389  -1.854   1.103  1.00  0.00    -0.126 Cl
ENDROOT
BRANCH   2   4
HETATM    4  C   LIG     1       0.545   0.136  -0.535  1.00  0.00     0.015 C 
HETATM    5  C   LIG     1       1.934   0.184   0.099  1.00  0.00     0.006 C 
ENDBRANCH   2   4
TORSDOF 1
