MODEL 1
REMARK VINA RESULT:      -3.6      0.000      0.000
REMARK  1 active torsions:
REMARK  status: ('A' for Active; 'I' for Inactive)
REMARK    1  A    between atoms: C_2  and  C_4 
ROOT
HETATM    1  C   LIG     1      17.570  38.119  24.242  1.00  0.00     0.028 C 
HETATM    2  C   LIG     1      17.264  36.836  25.018  1.00  0.00     0.092 C 
HETATM    3 CL   LIG     1      17.167  35.468  23.874  1.00  0.00    -0.124 Cl
ENDROOT
BRANCH   2   4
HETATM    4  C   LIG     1      18.330  36.540  26.077  1.00  0.00     0.134 C 
HETATM    5 CL   LIG     1      18.452  34.790  26.406  1.00  0.00    -0.129 Cl
ENDBRANCH   2   4
TORSDOF 1
ENDMDL
MODEL 2
REMARK VINA RESULT:      -3.5      1.585      2.959
REMARK  1 active torsions:
REMARK  status: ('A' for Active; 'I' for Inactive)
REMARK    1  A    between atoms: C_2  and  C_4 
ROOT
HETATM    1  C   LIG     1      17.466  34.831  25.595  1.00  0.00     0.028 C 
HETATM    2  C   LIG     1      17.337  36.338  25.364  1.00  0.00     0.092 C 
HETATM    3 CL   LIG     1      18.808  37.152  25.966  1.00  0.00    -0.124 Cl
ENDROOT
BRANCH   2   4
HETATM    4  C   LIG     1      17.139  36.675  23.882  1.00  0.00     0.134 C 
HETATM    5 CL   LIG     1      17.002  35.196  22.892  1.00  0.00    -0.129 Cl
ENDBRANCH   2   4
TORSDOF 1
ENDMDL
MODEL 3
REMARK VINA RESULT:      -3.4      1.563      2.731
REMARK  1 active torsions:
REMARK  status: ('A' for Active; 'I' for Inactive)
REMARK    1  A    between atoms: C_2  and  C_4 
ROOT
HETATM    1  C   LIG     1      17.197  35.198  24.056  1.00  0.00     0.028 C 
HETATM    2  C   LIG     1      17.374  35.786  25.457  1.00  0.00     0.092 C 
HETATM    3 CL   LIG     1      18.493  34.753  26.389  1.00  0.00    -0.124 Cl
ENDROOT
BRANCH   2   4
HETATM    4  C   LIG     1      17.919  37.217  25.412  1.00  0.00     0.134 C 
HETATM    5 CL   LIG     1      17.570  37.997  23.845  1.00  0.00    -0.129 Cl
ENDBRANCH   2   4
TORSDOF 1
ENDMDL
MODEL 4
REMARK VINA RESULT:      -3.4      2.099      2.349
REMARK  1 active torsions:
REMARK  status: ('A' for Active; 'I' for Inactive)
REMARK    1  A    between atoms: C_2  and  C_4 
ROOT
HETATM    1  C   LIG     1      16.883  35.336  22.627  1.00  0.00     0.028 C 
HETATM    2  C   LIG     1      17.030  36.722  23.258  1.00  0.00     0.092 C 
HETATM    3 CL   LIG     1      15.577  37.692  22.888  1.00  0.00    -0.124 Cl
ENDROOT
BRANCH   2   4
HETATM    4  C   LIG     1      17.216  36.643  24.777  1.00  0.00     0.134 C 
HETATM    5 CL   LIG     1      17.452  34.958  25.316  1.00  0.00    -0.129 Cl
ENDBRANCH   2   4
TORSDOF 1
ENDMDL
MODEL 5
REMARK VINA RESULT:      -3.3      4.644      5.357
REMARK  1 active torsions:
REMARK  status: ('A' for Active; 'I' for Inactive)
REMARK    1  A    between atoms: C_2  and  C_4 
ROOT
HETATM    1  C   LIG     1      20.298  38.838  19.482  1.00  0.00     0.028 C 
HETATM    2  C   LIG     1      18.914  38.562  20.072  1.00  0.00     0.092 C 
HETATM    3 CL   LIG     1      18.589  36.807  20.008  1.00  0.00    -0.124 Cl
ENDROOT
BRANCH   2   4
HETATM    4  C   LIG     1      18.802  39.047  21.521  1.00  0.00     0.134 C 
HETATM    5 CL   LIG     1      17.136  38.875  22.138  1.00  0.00    -0.129 Cl
ENDBRANCH   2   4
TORSDOF 1
ENDMDL
MODEL 6
REMARK VINA RESULT:      -3.3      2.265      2.532
REMARK  1 active torsions:
REMARK  status: ('A' for Active; 'I' for Inactive)
REMARK    1  A    between atoms: C_2  and  C_4 
ROOT
HETATM    1  C   LIG     1      15.855  37.820  22.971  1.00  0.00     0.028 C 
HETATM    2  C   LIG     1      17.289  37.748  23.497  1.00  0.00     0.092 C 
HETATM    3 CL   LIG     1      18.317  38.861  22.552  1.00  0.00    -0.124 Cl
ENDROOT
BRANCH   2   4
HETATM    4  C   LIG     1      17.373  38.115  24.983  1.00  0.00     0.134 C 
HETATM    5 CL   LIG     1      18.421  36.979  25.875  1.00  0.00    -0.129 Cl
ENDBRANCH   2   4
TORSDOF 1
ENDMDL
MODEL 7
REMARK VINA RESULT:      -3.3      2.081      3.221
REMARK  1 active torsions:
REMARK  status: ('A' for Active; 'I' for Inactive)
REMARK    1  A    between atoms: C_2  and  C_4 
ROOT
HETATM    1  C   LIG     1      17.512  34.935  25.432  1.00  0.00     0.028 C 
HETATM    2  C   LIG     1      17.268  36.415  25.131  1.00  0.00     0.092 C 
HETATM    3 CL   LIG     1      18.667  37.367  25.700  1.00  0.00    -0.124 Cl
ENDROOT
BRANCH   2   4
HETATM    4  C   LIG     1      17.055  36.667  23.635  1.00  0.00     0.134 C 
HETATM    5 CL   LIG     1      17.669  38.272  23.152  1.00  0.00    -0.129 Cl
ENDBRANCH   2   4
TORSDOF 1
ENDMDL
MODEL 8
REMARK VINA RESULT:      -3.2      4.288      5.376
REMARK  1 active torsions:
REMARK  status: ('A' for Active; 'I' for Inactive)
REMARK    1  A    between atoms: C_2  and  C_4 
ROOT
HETATM    1  C   LIG     1      17.164  38.876  22.137  1.00  0.00     0.028 C 
HETATM    2  C   LIG     1      18.407  38.389  21.390  1.00  0.00     0.092 C 
HETATM    3 CL   LIG     1      18.033  36.845  20.575  1.00  0.00    -0.124 Cl
ENDROOT
BRANCH   2   4
HETATM    4  C   LIG     1      18.888  39.409  20.352  1.00  0.00     0.134 C 
HETATM    5 CL   LIG     1      20.348  38.834  19.503  1.00  0.00    -0.129 Cl
ENDBRANCH   2   4
TORSDOF 1
ENDMDL
MODEL 9
REMARK VINA RESULT:      -3.2      2.191      2.407
REMARK  1 active torsions:
REMARK  status: ('A' for Active; 'I' for Inactive)
REMARK    1  A    between atoms: C_2  and  C_4 
ROOT
HETATM    1  C   LIG     1      17.399  38.233  22.465  1.00  0.00     0.028 C 
HETATM    2  C   LIG     1      16.725  36.996  23.062  1.00  0.00     0.092 C 
HETATM    3 CL   LIG     1      17.140  35.568  22.074  1.00  0.00    -0.124 Cl
ENDROOT
BRANCH   2   4
HETATM    4  C   LIG     1      17.154  36.755  24.513  1.00  0.00     0.134 C 
HETATM    5 CL   LIG     1      17.349  38.292  25.398  1.00  0.00    -0.129 Cl
ENDBRANCH   2   4
TORSDOF 1
ENDMDL
MODEL 10
REMARK VINA RESULT:      -3.1      3.858      4.467
REMARK  1 active torsions:
REMARK  status: ('A' for Active; 'I' for Inactive)
REMARK    1  A    between atoms: C_2  and  C_4 
ROOT
HETATM    1  C   LIG     1      16.990  35.220  22.978  1.00  0.00     0.028 C 
HETATM    2  C   LIG     1      16.641  35.268  21.489  1.00  0.00     0.092 C 
HETATM    3 CL   LIG     1      14.927  35.734  21.304  1.00  0.00    -0.124 Cl
ENDROOT
BRANCH   2   4
HETATM    4  C   LIG     1      17.523  36.261  20.726  1.00  0.00     0.134 C 
HETATM    5 CL   LIG     1      17.641  37.821  21.586  1.00  0.00    -0.129 Cl
ENDBRANCH   2   4
TORSDOF 1
ENDMDL
MODEL 11
REMARK VINA RESULT:      -3.1      4.273      4.853
REMARK  1 active torsions:
REMARK  status: ('A' for Active; 'I' for Inactive)
REMARK    1  A    between atoms: C_2  and  C_4 
ROOT
HETATM    1  C   LIG     1      16.226  35.383  20.462  1.00  0.00     0.028 C 
HETATM    2  C   LIG     1      17.399  36.103  21.129  1.00  0.00     0.092 C 
HETATM    3 CL   LIG     1      18.500  36.722  19.867  1.00  0.00    -0.124 Cl
ENDROOT
BRANCH   2   4
HETATM    4  C   LIG     1      16.930  37.266  22.010  1.00  0.00     0.134 C 
HETATM    5 CL   LIG     1      17.737  38.792  21.556  1.00  0.00    -0.129 Cl
ENDBRANCH   2   4
TORSDOF 1
ENDMDL
MODEL 12
REMARK VINA RESULT:      -3.1      2.632      3.239
REMARK  1 active torsions:
REMARK  status: ('A' for Active; 'I' for Inactive)
REMARK    1  A    between atoms: C_2  and  C_4 
ROOT
HETATM    1  C   LIG     1      17.413  39.015  22.409  1.00  0.00     0.028 C 
HETATM    2  C   LIG     1      17.347  37.652  23.101  1.00  0.00     0.092 C 
HETATM    3 CL   LIG     1      16.860  37.882  24.803  1.00  0.00    -0.124 Cl
ENDROOT
BRANCH   2   4
HETATM    4  C   LIG     1      16.357  36.708  22.411  1.00  0.00     0.134 C 
HETATM    5 CL   LIG     1      17.055  35.079  22.194  1.00  0.00    -0.129 Cl
ENDBRANCH   2   4
TORSDOF 1
ENDMDL
MODEL 13
REMARK VINA RESULT:      -3.0      4.706      5.687
REMARK  1 active torsions:
REMARK  status: ('A' for Active; 'I' for Inactive)
REMARK    1  A    between atoms: C_2  and  C_4 
ROOT
HETATM    1  C   LIG     1      17.498  36.132  21.010  1.00  0.00     0.028 C 
HETATM    2  C   LIG     1      18.049  37.413  20.380  1.00  0.00     0.092 C 
HETATM    3 CL   LIG     1      18.410  38.592  21.671  1.00  0.00    -0.124 Cl
ENDROOT
BRANCH   2   4
HETATM    4  C   LIG     1      19.317  37.149  19.562  1.00  0.00     0.134 C 
HETATM    5 CL   LIG     1      20.398  38.569  19.562  1.00  0.00    -0.129 Cl
ENDBRANCH   2   4
TORSDOF 1
ENDMDL
MODEL 14
REMARK VINA RESULT:      -3.0      3.386      4.595
REMARK  1 active torsions:
REMARK  status: ('A' for Active; 'I' for Inactive)
REMARK    1  A    between atoms: C_2  and  C_4 
ROOT
HETATM    1  C   LIG     1      17.522  36.848  21.179  1.00  0.00     0.028 C 
HETATM    2  C   LIG     1      17.263  38.057  22.081  1.00  0.00     0.092 C 
HETATM    3 CL   LIG     1      16.961  37.490  23.747  1.00  0.00    -0.124 Cl
ENDROOT
BRANCH   2   4
HETATM    4  C   LIG     1      18.443  39.034  22.082  1.00  0.00     0.134 C 
HETATM    5 CL   LIG     1      18.910  39.490  20.421  1.00  0.00    -0.129 Cl
ENDBRANCH   2   4
TORSDOF 1
ENDMDL
MODEL 15
REMARK VINA RESULT:      -2.9     12.396     13.005
REMARK  1 active torsions:
REMARK  status: ('A' for Active; 'I' for Inactive)
REMARK    1  A    between atoms: C_2  and  C_4 
ROOT
HETATM    1  C   LIG     1      15.246  28.415  13.794  1.00  0.00     0.028 C 
HETATM    2  C   LIG     1      14.981  29.766  14.461  1.00  0.00     0.092 C 
HETATM    3 CL   LIG     1      15.538  31.073  13.380  1.00  0.00    -0.124 Cl
ENDROOT
BRANCH   2   4
HETATM    4  C   LIG     1      13.495  29.965  14.779  1.00  0.00     0.134 C 
HETATM    5 CL   LIG     1      13.268  30.718  16.381  1.00  0.00    -0.129 Cl
ENDBRANCH   2   4
TORSDOF 1
ENDMDL
MODEL 16
REMARK VINA RESULT:      -2.9     11.874     12.611
REMARK  1 active torsions:
REMARK  status: ('A' for Active; 'I' for Inactive)
REMARK    1  A    between atoms: C_2  and  C_4 
ROOT
HETATM    1  C   LIG     1      15.280  29.176  14.140  1.00  0.00     0.028 C 
HETATM    2  C   LIG     1      14.636  30.550  14.339  1.00  0.00     0.092 C 
HETATM    3 CL   LIG     1      13.344  30.419  15.565  1.00  0.00    -0.124 Cl
ENDROOT
BRANCH   2   4
HETATM    4  C   LIG     1      15.657  31.601  14.786  1.00  0.00     0.134 C 
HETATM    5 CL   LIG     1      16.382  32.439  13.387  1.00  0.00    -0.129 Cl
ENDBRANCH   2   4
TORSDOF 1
ENDMDL
MODEL 17
REMARK VINA RESULT:      -2.8      9.516     10.341
REMARK  1 active torsions:
REMARK  status: ('A' for Active; 'I' for Inactive)
REMARK    1  A    between atoms: C_2  and  C_4 
ROOT
HETATM    1  C   LIG     1      13.502  30.873  16.488  1.00  0.00     0.028 C 
HETATM    2  C   LIG     1      14.038  32.120  17.194  1.00  0.00     0.092 C 
HETATM    3 CL   LIG     1      14.581  31.677  18.836  1.00  0.00    -0.124 Cl
ENDROOT
BRANCH   2   4
HETATM    4  C   LIG     1      15.202  32.756  16.427  1.00  0.00     0.134 C 
HETATM    5 CL   LIG     1      15.600  31.822  14.959  1.00  0.00    -0.129 Cl
ENDBRANCH   2   4
TORSDOF 1
ENDMDL
MODEL 18
REMARK VINA RESULT:      -2.8      3.707      4.659
REMARK  1 active torsions:
REMARK  status: ('A' for Active; 'I' for Inactive)
REMARK    1  A    between atoms: C_2  and  C_4 
ROOT
HETATM    1  C   LIG     1      16.967  35.306  23.012  1.00  0.00     0.028 C 
HETATM    2  C   LIG     1      16.382  36.178  21.899  1.00  0.00     0.092 C 
HETATM    3 CL   LIG     1      17.176  37.777  21.929  1.00  0.00    -0.124 Cl
ENDROOT
BRANCH   2   4
HETATM    4  C   LIG     1      16.568  35.542  20.518  1.00  0.00     0.134 C 
HETATM    5 CL   LIG     1      15.775  33.946  20.423  1.00  0.00    -0.129 Cl
ENDBRANCH   2   4
TORSDOF 1
ENDMDL
MODEL 19
REMARK VINA RESULT:      -2.8      8.651      9.202
REMARK  1 active torsions:
REMARK  status: ('A' for Active; 'I' for Inactive)
REMARK    1  A    between atoms: C_2  and  C_4 
ROOT
HETATM    1  C   LIG     1      15.667  32.619  16.018  1.00  0.00     0.028 C 
HETATM    2  C   LIG     1      14.602  32.536  17.113  1.00  0.00     0.092 C 
HETATM    3 CL   LIG     1      13.752  30.970  16.987  1.00  0.00    -0.124 Cl
ENDROOT
BRANCH   2   4
HETATM    4  C   LIG     1      15.209  32.675  18.513  1.00  0.00     0.134 C 
HETATM    5 CL   LIG     1      14.686  31.345  19.583  1.00  0.00    -0.129 Cl
ENDBRANCH   2   4
TORSDOF 1
ENDMDL
MODEL 20
REMARK VINA RESULT:      -2.8      9.606     10.367
REMARK  1 active torsions:
REMARK  status: ('A' for Active; 'I' for Inactive)
REMARK    1  A    between atoms: C_2  and  C_4 
ROOT
HETATM    1  C   LIG     1      15.617  32.163  15.393  1.00  0.00     0.028 C 
HETATM    2  C   LIG     1      15.160  32.513  16.810  1.00  0.00     0.092 C 
HETATM    3 CL   LIG     1      14.991  34.285  16.951  1.00  0.00    -0.124 Cl
ENDROOT
BRANCH   2   4
HETATM    4  C   LIG     1      13.827  31.845  17.163  1.00  0.00     0.134 C 
HETATM    5 CL   LIG     1      13.329  30.683  15.903  1.00  0.00    -0.129 Cl
ENDBRANCH   2   4
TORSDOF 1
ENDMDL
