MODEL 1
REMARK VINA RESULT:      -4.0      0.000      0.000
REMARK  1 active torsions:
REMARK  status: ('A' for Active; 'I' for Inactive)
REMARK    1  A    between atoms: C_2  and  C_4 
ROOT
HETATM    1  C   LIG     1      17.746  38.096  24.383  1.00  0.00     0.026 C 
HETATM    2  C   LIG     1      17.294  36.800  25.054  1.00  0.00     0.078 C 
HETATM    3 CL   LIG     1      17.120  35.530  23.807  1.00  0.00    -0.126 Cl
ENDROOT
BRANCH   2   4
HETATM    4  C   LIG     1      18.297  36.368  26.137  1.00  0.00     0.015 C 
HETATM    5  C   LIG     1      18.296  34.855  26.352  1.00  0.00     0.006 C 
ENDBRANCH   2   4
TORSDOF 1
ENDMDL
MODEL 2
REMARK VINA RESULT:      -3.8      1.770      2.651
REMARK  1 active torsions:
REMARK  status: ('A' for Active; 'I' for Inactive)
REMARK    1  A    between atoms: C_2  and  C_4 
ROOT
HETATM    1  C   LIG     1      17.227  35.267  24.205  1.00  0.00     0.026 C 
HETATM    2  C   LIG     1      17.513  35.781  25.615  1.00  0.00     0.078 C 
HETATM    3 CL   LIG     1      18.582  34.617  26.452  1.00  0.00    -0.126 Cl
ENDROOT
BRANCH   2   4
HETATM    4  C   LIG     1      18.157  37.177  25.567  1.00  0.00     0.015 C 
HETATM    5  C   LIG     1      17.292  38.184  24.812  1.00  0.00     0.006 C 
ENDBRANCH   2   4
TORSDOF 1
ENDMDL
MODEL 3
REMARK VINA RESULT:      -3.6      1.437      1.571
REMARK  1 active torsions:
REMARK  status: ('A' for Active; 'I' for Inactive)
REMARK    1  A    between atoms: C_2  and  C_4 
ROOT
HETATM    1  C   LIG     1      17.544  37.633  25.618  1.00  0.00     0.026 C 
HETATM    2  C   LIG     1      16.898  36.827  24.492  1.00  0.00     0.078 C 
HETATM    3 CL   LIG     1      17.355  37.553  22.923  1.00  0.00    -0.126 Cl
ENDROOT
BRANCH   2   4
HETATM    4  C   LIG     1      17.333  35.353  24.558  1.00  0.00     0.015 C 
HETATM    5  C   LIG     1      17.538  34.877  25.995  1.00  0.00     0.006 C 
ENDBRANCH   2   4
TORSDOF 1
ENDMDL
MODEL 4
REMARK VINA RESULT:      -3.6      4.365      5.424
REMARK  1 active torsions:
REMARK  status: ('A' for Active; 'I' for Inactive)
REMARK    1  A    between atoms: C_2  and  C_4 
ROOT
HETATM    1  C   LIG     1      20.373  38.769  19.462  1.00  0.00     0.026 C 
HETATM    2  C   LIG     1      18.944  38.534  19.951  1.00  0.00     0.078 C 
HETATM    3 CL   LIG     1      18.621  36.775  19.977  1.00  0.00    -0.126 Cl
ENDROOT
BRANCH   2   4
HETATM    4  C   LIG     1      18.737  39.148  21.345  1.00  0.00     0.015 C 
HETATM    5  C   LIG     1      17.433  38.683  21.991  1.00  0.00     0.006 C 
ENDBRANCH   2   4
TORSDOF 1
ENDMDL
MODEL 5
REMARK VINA RESULT:      -3.6      5.217      5.641
REMARK  1 active torsions:
REMARK  status: ('A' for Active; 'I' for Inactive)
REMARK    1  A    between atoms: C_2  and  C_4 
ROOT
HETATM    1  C   LIG     1      18.641  38.863  21.329  1.00  0.00     0.026 C 
HETATM    2  C   LIG     1      18.890  38.366  19.905  1.00  0.00     0.078 C 
HETATM    3 CL   LIG     1      20.520  38.885  19.385  1.00  0.00    -0.126 Cl
ENDROOT
BRANCH   2   4
HETATM    4  C   LIG     1      18.756  36.835  19.832  1.00  0.00     0.015 C 
HETATM    5  C   LIG     1      17.624  36.313  20.715  1.00  0.00     0.006 C 
ENDBRANCH   2   4
TORSDOF 1
ENDMDL
MODEL 6
REMARK VINA RESULT:      -3.4      4.487      5.092
REMARK  1 active torsions:
REMARK  status: ('A' for Active; 'I' for Inactive)
REMARK    1  A    between atoms: C_2  and  C_4 
ROOT
HETATM    1  C   LIG     1      18.879  39.480  20.598  1.00  0.00     0.026 C 
HETATM    2  C   LIG     1      18.335  38.355  21.478  1.00  0.00     0.078 C 
HETATM    3 CL   LIG     1      16.840  38.917  22.281  1.00  0.00    -0.126 Cl
ENDROOT
BRANCH   2   4
HETATM    4  C   LIG     1      18.064  37.092  20.643  1.00  0.00     0.015 C 
HETATM    5  C   LIG     1      19.103  36.897  19.541  1.00  0.00     0.006 C 
ENDBRANCH   2   4
TORSDOF 1
ENDMDL
MODEL 7
REMARK VINA RESULT:      -3.4      2.113      2.581
REMARK  1 active torsions:
REMARK  status: ('A' for Active; 'I' for Inactive)
REMARK    1  A    between atoms: C_2  and  C_4 
ROOT
HETATM    1  C   LIG     1      15.778  37.791  22.933  1.00  0.00     0.026 C 
HETATM    2  C   LIG     1      17.207  37.694  23.466  1.00  0.00     0.078 C 
HETATM    3 CL   LIG     1      18.244  38.835  22.560  1.00  0.00    -0.126 Cl
ENDROOT
BRANCH   2   4
HETATM    4  C   LIG     1      17.248  37.998  24.973  1.00  0.00     0.015 C 
HETATM    5  C   LIG     1      18.137  37.016  25.734  1.00  0.00     0.006 C 
ENDBRANCH   2   4
TORSDOF 1
ENDMDL
MODEL 8
REMARK VINA RESULT:      -3.4      5.170      6.039
REMARK  1 active torsions:
REMARK  status: ('A' for Active; 'I' for Inactive)
REMARK    1  A    between atoms: C_2  and  C_4 
ROOT
HETATM    1  C   LIG     1      19.037  39.138  18.310  1.00  0.00     0.026 C 
HETATM    2  C   LIG     1      19.439  38.444  19.611  1.00  0.00     0.078 C 
HETATM    3 CL   LIG     1      18.557  39.200  20.970  1.00  0.00    -0.126 Cl
ENDROOT
BRANCH   2   4
HETATM    4  C   LIG     1      19.143  36.936  19.539  1.00  0.00     0.015 C 
HETATM    5  C   LIG     1      17.991  36.532  20.457  1.00  0.00     0.006 C 
ENDBRANCH   2   4
TORSDOF 1
ENDMDL
MODEL 9
REMARK VINA RESULT:      -3.4      3.373      4.185
REMARK  1 active torsions:
REMARK  status: ('A' for Active; 'I' for Inactive)
REMARK    1  A    between atoms: C_2  and  C_4 
ROOT
HETATM    1  C   LIG     1      18.062  36.573  20.419  1.00  0.00     0.026 C 
HETATM    2  C   LIG     1      17.037  36.679  21.548  1.00  0.00     0.078 C 
HETATM    3 CL   LIG     1      17.092  35.183  22.525  1.00  0.00    -0.126 Cl
ENDROOT
BRANCH   2   4
HETATM    4  C   LIG     1      17.315  37.913  22.423  1.00  0.00     0.015 C 
HETATM    5  C   LIG     1      18.205  38.932  21.714  1.00  0.00     0.006 C 
ENDBRANCH   2   4
TORSDOF 1
ENDMDL
MODEL 10
REMARK VINA RESULT:      -3.3      4.452      5.682
REMARK  1 active torsions:
REMARK  status: ('A' for Active; 'I' for Inactive)
REMARK    1  A    between atoms: C_2  and  C_4 
ROOT
HETATM    1  C   LIG     1      17.500  36.800  21.293  1.00  0.00     0.026 C 
HETATM    2  C   LIG     1      18.160  38.035  20.682  1.00  0.00     0.078 C 
HETATM    3 CL   LIG     1      18.825  39.050  21.996  1.00  0.00    -0.126 Cl
ENDROOT
BRANCH   2   4
HETATM    4  C   LIG     1      19.266  37.629  19.693  1.00  0.00     0.015 C 
HETATM    5  C   LIG     1      20.296  38.740  19.493  1.00  0.00     0.006 C 
ENDBRANCH   2   4
TORSDOF 1
ENDMDL
MODEL 11
REMARK VINA RESULT:      -3.3      2.944      3.870
REMARK  1 active torsions:
REMARK  status: ('A' for Active; 'I' for Inactive)
REMARK    1  A    between atoms: C_2  and  C_4 
ROOT
HETATM    1  C   LIG     1      16.859  36.395  22.821  1.00  0.00     0.026 C 
HETATM    2  C   LIG     1      16.390  37.697  23.469  1.00  0.00     0.078 C 
HETATM    3 CL   LIG     1      17.104  37.822  25.104  1.00  0.00    -0.126 Cl
ENDROOT
BRANCH   2   4
HETATM    4  C   LIG     1      16.783  38.908  22.607  1.00  0.00     0.015 C 
HETATM    5  C   LIG     1      17.885  38.568  21.605  1.00  0.00     0.006 C 
ENDBRANCH   2   4
TORSDOF 1
ENDMDL
MODEL 12
REMARK VINA RESULT:      -3.2     12.676     13.076
REMARK  1 active torsions:
REMARK  status: ('A' for Active; 'I' for Inactive)
REMARK    1  A    between atoms: C_2  and  C_4 
ROOT
HETATM    1  C   LIG     1      15.274  28.437  13.769  1.00  0.00     0.026 C 
HETATM    2  C   LIG     1      14.972  29.773  14.446  1.00  0.00     0.078 C 
HETATM    3 CL   LIG     1      15.531  31.102  13.388  1.00  0.00    -0.126 Cl
ENDROOT
BRANCH   2   4
HETATM    4  C   LIG     1      13.468  29.907  14.742  1.00  0.00     0.015 C 
HETATM    5  C   LIG     1      13.201  30.705  16.017  1.00  0.00     0.006 C 
ENDBRANCH   2   4
TORSDOF 1
ENDMDL
MODEL 13
REMARK VINA RESULT:      -3.2      8.269      8.588
REMARK  1 active torsions:
REMARK  status: ('A' for Active; 'I' for Inactive)
REMARK    1  A    between atoms: C_2  and  C_4 
ROOT
HETATM    1  C   LIG     1      13.928  31.698  17.358  1.00  0.00     0.026 C 
HETATM    2  C   LIG     1      15.151  32.530  17.743  1.00  0.00     0.078 C 
HETATM    3 CL   LIG     1      14.995  34.160  17.025  1.00  0.00    -0.126 Cl
ENDROOT
BRANCH   2   4
HETATM    4  C   LIG     1      15.291  32.618  19.273  1.00  0.00     0.015 C 
HETATM    5  C   LIG     1      14.847  31.332  19.966  1.00  0.00     0.006 C 
ENDBRANCH   2   4
TORSDOF 1
ENDMDL
MODEL 14
REMARK VINA RESULT:      -3.2      2.344      2.913
REMARK  1 active torsions:
REMARK  status: ('A' for Active; 'I' for Inactive)
REMARK    1  A    between atoms: C_2  and  C_4 
ROOT
HETATM    1  C   LIG     1      17.537  38.870  22.077  1.00  0.00     0.026 C 
HETATM    2  C   LIG     1      16.749  37.591  22.359  1.00  0.00     0.078 C 
HETATM    3 CL   LIG     1      17.385  36.277  21.327  1.00  0.00    -0.126 Cl
ENDROOT
BRANCH   2   4
HETATM    4  C   LIG     1      16.842  37.211  23.846  1.00  0.00     0.015 C 
HETATM    5  C   LIG     1      17.887  38.041  24.589  1.00  0.00     0.006 C 
ENDBRANCH   2   4
TORSDOF 1
ENDMDL
MODEL 15
REMARK VINA RESULT:      -3.2     11.944     12.309
REMARK  1 active torsions:
REMARK  status: ('A' for Active; 'I' for Inactive)
REMARK    1  A    between atoms: C_2  and  C_4 
ROOT
HETATM    1  C   LIG     1      15.516  31.458  14.921  1.00  0.00     0.026 C 
HETATM    2  C   LIG     1      14.544  30.433  14.338  1.00  0.00     0.078 C 
HETATM    3 CL   LIG     1      15.404  28.881  14.111  1.00  0.00    -0.126 Cl
ENDROOT
BRANCH   2   4
HETATM    4  C   LIG     1      13.325  30.252  15.258  1.00  0.00     0.015 C 
HETATM    5  C   LIG     1      13.425  31.107  16.520  1.00  0.00     0.006 C 
ENDBRANCH   2   4
TORSDOF 1
ENDMDL
MODEL 16
REMARK VINA RESULT:      -3.1      5.982      7.242
REMARK  1 active torsions:
REMARK  status: ('A' for Active; 'I' for Inactive)
REMARK    1  A    between atoms: C_2  and  C_4 
ROOT
HETATM    1  C   LIG     1      19.154  36.906  19.560  1.00  0.00     0.026 C 
HETATM    2  C   LIG     1      18.814  38.394  19.486  1.00  0.00     0.078 C 
HETATM    3 CL   LIG     1      19.156  39.149  21.070  1.00  0.00    -0.126 Cl
ENDROOT
BRANCH   2   4
HETATM    4  C   LIG     1      19.617  39.082  18.369  1.00  0.00     0.015 C 
HETATM    5  C   LIG     1      18.740  39.452  17.174  1.00  0.00     0.006 C 
ENDBRANCH   2   4
TORSDOF 1
ENDMDL
MODEL 17
REMARK VINA RESULT:      -3.1      9.887     10.348
REMARK  1 active torsions:
REMARK  status: ('A' for Active; 'I' for Inactive)
REMARK    1  A    between atoms: C_2  and  C_4 
ROOT
HETATM    1  C   LIG     1      14.869  32.176  18.467  1.00  0.00     0.026 C 
HETATM    2  C   LIG     1      14.284  32.559  17.108  1.00  0.00     0.078 C 
HETATM    3 CL   LIG     1      15.514  32.270  15.843  1.00  0.00    -0.126 Cl
ENDROOT
BRANCH   2   4
HETATM    4  C   LIG     1      13.005  31.755  16.820  1.00  0.00     0.015 C 
HETATM    5  C   LIG     1      13.250  30.621  15.825  1.00  0.00     0.006 C 
ENDBRANCH   2   4
TORSDOF 1
ENDMDL
MODEL 18
REMARK VINA RESULT:      -3.0     12.736     13.161
REMARK  1 active torsions:
REMARK  status: ('A' for Active; 'I' for Inactive)
REMARK    1  A    between atoms: C_2  and  C_4 
ROOT
HETATM    1  C   LIG     1      13.543  29.968  14.843  1.00  0.00     0.026 C 
HETATM    2  C   LIG     1      15.002  29.775  14.430  1.00  0.00     0.078 C 
HETATM    3 CL   LIG     1      15.202  28.132  13.754  1.00  0.00    -0.126 Cl
ENDROOT
BRANCH   2   4
HETATM    4  C   LIG     1      15.425  30.842  13.406  1.00  0.00     0.015 C 
HETATM    5  C   LIG     1      16.029  32.075  14.076  1.00  0.00     0.006 C 
ENDBRANCH   2   4
TORSDOF 1
ENDMDL
MODEL 19
REMARK VINA RESULT:      -3.0     11.154     11.524
REMARK  1 active torsions:
REMARK  status: ('A' for Active; 'I' for Inactive)
REMARK    1  A    between atoms: C_2  and  C_4 
ROOT
HETATM    1  C   LIG     1      14.424  32.682  16.844  1.00  0.00     0.026 C 
HETATM    2  C   LIG     1      14.490  31.299  16.196  1.00  0.00     0.078 C 
HETATM    3 CL   LIG     1      12.826  30.713  15.905  1.00  0.00    -0.126 Cl
ENDROOT
BRANCH   2   4
HETATM    4  C   LIG     1      15.289  31.351  14.882  1.00  0.00     0.015 C 
HETATM    5  C   LIG     1      15.043  30.120  14.011  1.00  0.00     0.006 C 
ENDBRANCH   2   4
TORSDOF 1
ENDMDL
MODEL 20
REMARK VINA RESULT:      -2.9     10.439     10.843
REMARK  1 active torsions:
REMARK  status: ('A' for Active; 'I' for Inactive)
REMARK    1  A    between atoms: C_2  and  C_4 
ROOT
HETATM    1  C   LIG     1      15.002  32.527  17.276  1.00  0.00     0.026 C 
HETATM    2  C   LIG     1      15.206  32.258  15.786  1.00  0.00     0.078 C 
HETATM    3 CL   LIG     1      16.959  32.182  15.443  1.00  0.00    -0.126 Cl
ENDROOT
BRANCH   2   4
HETATM    4  C   LIG     1      14.511  30.950  15.368  1.00  0.00     0.015 C 
HETATM    5  C   LIG     1      13.217  30.714  16.144  1.00  0.00     0.006 C 
ENDBRANCH   2   4
TORSDOF 1
ENDMDL
