MODEL 1
REMARK VINA RESULT:      -4.0      0.000      0.000
REMARK  2 active torsions:
REMARK  status: ('A' for Active; 'I' for Inactive)
REMARK    1  A    between atoms: C_2  and  C_4 
REMARK    2  A    between atoms: C_2  and  O_3 
ROOT
HETATM    1  C   LIG     1      17.094  36.823  24.238  1.00  0.00     0.039 C 
HETATM    2  C   LIG     1      17.954  37.530  25.292  1.00  0.00     0.113 C 
ENDROOT
BRANCH   2   3
HETATM    3  C   LIG     1      18.360  36.588  26.442  1.00  0.00     0.027 C 
HETATM    4  C   LIG     1      18.029  35.117  26.177  1.00  0.00     0.007 C 
ENDBRANCH   2   3
BRANCH   2   5
HETATM    5  O   LIG     1      17.273  38.646  25.805  1.00  0.00    -0.396 OA
HETATM    6  H   LIG     1      17.792  38.963  26.590  1.00  0.00     0.210 HD
ENDBRANCH   2   5
TORSDOF 2
ENDMDL
MODEL 2
REMARK VINA RESULT:      -3.9      5.523      6.284
REMARK  2 active torsions:
REMARK  status: ('A' for Active; 'I' for Inactive)
REMARK    1  A    between atoms: C_2  and  C_4 
REMARK    2  A    between atoms: C_2  and  O_3 
ROOT
HETATM    1  C   LIG     1      19.433  37.404  19.424  1.00  0.00     0.039 C 
HETATM    2  C   LIG     1      19.948  38.729  19.998  1.00  0.00     0.113 C 
ENDROOT
BRANCH   2   3
HETATM    3  C   LIG     1      18.816  39.583  20.602  1.00  0.00     0.027 C 
HETATM    4  C   LIG     1      18.354  39.105  21.980  1.00  0.00     0.007 C 
ENDBRANCH   2   3
BRANCH   2   5
HETATM    5  O   LIG     1      20.621  39.460  19.006  1.00  0.00    -0.396 OA
HETATM    6  H   LIG     1      20.043  40.233  18.777  1.00  0.00     0.210 HD
ENDBRANCH   2   5
TORSDOF 2
ENDMDL
MODEL 3
REMARK VINA RESULT:      -3.8      5.939      6.409
REMARK  2 active torsions:
REMARK  status: ('A' for Active; 'I' for Inactive)
REMARK    1  A    between atoms: C_2  and  C_4 
REMARK    2  A    between atoms: C_2  and  O_3 
ROOT
HETATM    1  C   LIG     1      18.918  39.448  20.820  1.00  0.00     0.039 C 
HETATM    2  C   LIG     1      19.364  38.895  19.461  1.00  0.00     0.113 C 
ENDROOT
BRANCH   2   3
HETATM    3  C   LIG     1      19.416  37.355  19.446  1.00  0.00     0.027 C 
HETATM    4  C   LIG     1      18.256  36.694  20.193  1.00  0.00     0.007 C 
ENDBRANCH   2   3
BRANCH   2   5
HETATM    5  O   LIG     1      20.619  39.420  19.111  1.00  0.00    -0.396 OA
HETATM    6  H   LIG     1      21.071  39.672  19.958  1.00  0.00     0.210 HD
ENDBRANCH   2   5
TORSDOF 2
ENDMDL
MODEL 4
REMARK VINA RESULT:      -3.6      1.077      2.664
REMARK  2 active torsions:
REMARK  status: ('A' for Active; 'I' for Inactive)
REMARK    1  A    between atoms: C_2  and  C_4 
REMARK    2  A    between atoms: C_2  and  O_3 
ROOT
HETATM    1  C   LIG     1      18.515  36.829  25.965  1.00  0.00     0.039 C 
HETATM    2  C   LIG     1      17.264  37.505  25.392  1.00  0.00     0.113 C 
ENDROOT
BRANCH   2   3
HETATM    3  C   LIG     1      17.144  37.318  23.868  1.00  0.00     0.027 C 
HETATM    4  C   LIG     1      17.680  38.502  23.060  1.00  0.00     0.007 C 
ENDBRANCH   2   3
BRANCH   2   5
HETATM    5  O   LIG     1      17.264  38.874  25.707  1.00  0.00    -0.396 OA
HETATM    6  H   LIG     1      16.789  39.339  24.971  1.00  0.00     0.210 HD
ENDBRANCH   2   5
TORSDOF 2
ENDMDL
MODEL 5
REMARK VINA RESULT:      -3.6      2.453      3.743
REMARK  2 active torsions:
REMARK  status: ('A' for Active; 'I' for Inactive)
REMARK    1  A    between atoms: C_2  and  C_4 
REMARK    2  A    between atoms: C_2  and  O_3 
ROOT
HETATM    1  C   LIG     1      17.042  37.328  24.767  1.00  0.00     0.039 C 
HETATM    2  C   LIG     1      16.438  37.719  23.413  1.00  0.00     0.113 C 
ENDROOT
BRANCH   2   3
HETATM    3  C   LIG     1      17.208  38.873  22.742  1.00  0.00     0.027 C 
HETATM    4  C   LIG     1      17.956  38.455  21.473  1.00  0.00     0.007 C 
ENDBRANCH   2   3
BRANCH   2   5
HETATM    5  O   LIG     1      15.087  38.072  23.567  1.00  0.00    -0.396 OA
HETATM    6  H   LIG     1      14.903  38.795  22.913  1.00  0.00     0.210 HD
ENDBRANCH   2   5
TORSDOF 2
ENDMDL
MODEL 6
REMARK VINA RESULT:      -3.6      1.944      2.991
REMARK  2 active torsions:
REMARK  status: ('A' for Active; 'I' for Inactive)
REMARK    1  A    between atoms: C_2  and  C_4 
REMARK    2  A    between atoms: C_2  and  O_3 
ROOT
HETATM    1  C   LIG     1      18.478  36.232  26.840  1.00  0.00     0.039 C 
HETATM    2  C   LIG     1      17.793  35.354  25.787  1.00  0.00     0.113 C 
ENDROOT
BRANCH   2   3
HETATM    3  C   LIG     1      17.231  36.180  24.614  1.00  0.00     0.027 C 
HETATM    4  C   LIG     1      17.156  37.681  24.900  1.00  0.00     0.007 C 
ENDBRANCH   2   3
BRANCH   2   5
HETATM    5  O   LIG     1      16.765  34.600  26.377  1.00  0.00    -0.396 OA
HETATM    6  H   LIG     1      16.365  34.046  25.657  1.00  0.00     0.210 HD
ENDBRANCH   2   5
TORSDOF 2
ENDMDL
MODEL 7
REMARK VINA RESULT:      -3.5      6.114      6.946
REMARK  2 active torsions:
REMARK  status: ('A' for Active; 'I' for Inactive)
REMARK    1  A    between atoms: C_2  and  C_4 
REMARK    2  A    between atoms: C_2  and  O_3 
ROOT
HETATM    1  C   LIG     1      15.748  35.243  20.410  1.00  0.00     0.039 C 
HETATM    2  C   LIG     1      15.337  33.832  20.848  1.00  0.00     0.113 C 
ENDROOT
BRANCH   2   3
HETATM    3  C   LIG     1      15.302  32.841  19.668  1.00  0.00     0.027 C 
HETATM    4  C   LIG     1      14.859  31.431  20.064  1.00  0.00     0.007 C 
ENDBRANCH   2   3
BRANCH   2   5
HETATM    5  O   LIG     1      14.084  33.865  21.482  1.00  0.00    -0.396 OA
HETATM    6  H   LIG     1      14.128  33.225  22.239  1.00  0.00     0.210 HD
ENDBRANCH   2   5
TORSDOF 2
ENDMDL
MODEL 8
REMARK VINA RESULT:      -3.5      2.067      2.710
REMARK  2 active torsions:
REMARK  status: ('A' for Active; 'I' for Inactive)
REMARK    1  A    between atoms: C_2  and  C_4 
REMARK    2  A    between atoms: C_2  and  O_3 
ROOT
HETATM    1  C   LIG     1      16.644  36.588  22.395  1.00  0.00     0.039 C 
HETATM    2  C   LIG     1      16.461  37.976  23.020  1.00  0.00     0.113 C 
ENDROOT
BRANCH   2   3
HETATM    3  C   LIG     1      17.545  38.293  24.067  1.00  0.00     0.027 C 
HETATM    4  C   LIG     1      17.391  37.503  25.369  1.00  0.00     0.007 C 
ENDBRANCH   2   3
BRANCH   2   5
HETATM    5  O   LIG     1      15.187  38.082  23.603  1.00  0.00    -0.396 OA
HETATM    6  H   LIG     1      15.321  38.427  24.523  1.00  0.00     0.210 HD
ENDBRANCH   2   5
TORSDOF 2
ENDMDL
MODEL 9
REMARK VINA RESULT:      -3.4      3.050      3.611
REMARK  2 active torsions:
REMARK  status: ('A' for Active; 'I' for Inactive)
REMARK    1  A    between atoms: C_2  and  C_4 
REMARK    2  A    between atoms: C_2  and  O_3 
ROOT
HETATM    1  C   LIG     1      17.135  38.880  22.429  1.00  0.00     0.039 C 
HETATM    2  C   LIG     1      16.563  37.792  23.347  1.00  0.00     0.113 C 
ENDROOT
BRANCH   2   3
HETATM    3  C   LIG     1      16.747  36.379  22.761  1.00  0.00     0.027 C 
HETATM    4  C   LIG     1      17.175  36.373  21.292  1.00  0.00     0.007 C 
ENDBRANCH   2   3
BRANCH   2   5
HETATM    5  O   LIG     1      15.202  38.033  23.596  1.00  0.00    -0.396 OA
HETATM    6  H   LIG     1      14.948  37.469  24.372  1.00  0.00     0.210 HD
ENDBRANCH   2   5
TORSDOF 2
ENDMDL
MODEL 10
REMARK VINA RESULT:      -3.2      4.789      5.660
REMARK  2 active torsions:
REMARK  status: ('A' for Active; 'I' for Inactive)
REMARK    1  A    between atoms: C_2  and  C_4 
REMARK    2  A    between atoms: C_2  and  O_3 
ROOT
HETATM    1  C   LIG     1      15.514  33.128  20.139  1.00  0.00     0.039 C 
HETATM    2  C   LIG     1      15.359  34.591  20.573  1.00  0.00     0.113 C 
ENDROOT
BRANCH   2   3
HETATM    3  C   LIG     1      16.680  35.188  21.096  1.00  0.00     0.027 C 
HETATM    4  C   LIG     1      16.810  35.150  22.620  1.00  0.00     0.007 C 
ENDBRANCH   2   3
BRANCH   2   5
HETATM    5  O   LIG     1      14.361  34.703  21.555  1.00  0.00    -0.396 OA
HETATM    6  H   LIG     1      13.596  35.175  21.135  1.00  0.00     0.210 HD
ENDBRANCH   2   5
TORSDOF 2
ENDMDL
MODEL 11
REMARK VINA RESULT:      -3.2     12.924     13.728
REMARK  2 active torsions:
REMARK  status: ('A' for Active; 'I' for Inactive)
REMARK    1  A    between atoms: C_2  and  C_4 
REMARK    2  A    between atoms: C_2  and  O_3 
ROOT
HETATM    1  C   LIG     1      15.274  28.809  13.905  1.00  0.00     0.039 C 
HETATM    2  C   LIG     1      14.083  29.752  14.116  1.00  0.00     0.113 C 
ENDROOT
BRANCH   2   3
HETATM    3  C   LIG     1      14.226  30.595  15.398  1.00  0.00     0.027 C 
HETATM    4  C   LIG     1      12.923  30.738  16.187  1.00  0.00     0.007 C 
ENDBRANCH   2   3
BRANCH   2   5
HETATM    5  O   LIG     1      12.885  29.020  14.157  1.00  0.00    -0.396 OA
HETATM    6  H   LIG     1      13.043  28.244  14.756  1.00  0.00     0.210 HD
ENDBRANCH   2   5
TORSDOF 2
ENDMDL
MODEL 12
REMARK VINA RESULT:      -3.2      7.911      8.884
REMARK  2 active torsions:
REMARK  status: ('A' for Active; 'I' for Inactive)
REMARK    1  A    between atoms: C_2  and  C_4 
REMARK    2  A    between atoms: C_2  and  O_3 
ROOT
HETATM    1  C   LIG     1      15.599  33.537  20.285  1.00  0.00     0.039 C 
HETATM    2  C   LIG     1      15.320  32.269  19.469  1.00  0.00     0.113 C 
ENDROOT
BRANCH   2   3
HETATM    3  C   LIG     1      15.061  32.576  17.982  1.00  0.00     0.027 C 
HETATM    4  C   LIG     1      13.987  31.689  17.349  1.00  0.00     0.007 C 
ENDBRANCH   2   3
BRANCH   2   5
HETATM    5  O   LIG     1      14.227  31.572  20.011  1.00  0.00    -0.396 OA
HETATM    6  H   LIG     1      13.422  32.128  19.845  1.00  0.00     0.210 HD
ENDBRANCH   2   5
TORSDOF 2
ENDMDL
MODEL 13
REMARK VINA RESULT:      -3.2     10.282     10.917
REMARK  2 active torsions:
REMARK  status: ('A' for Active; 'I' for Inactive)
REMARK    1  A    between atoms: C_2  and  C_4 
REMARK    2  A    between atoms: C_2  and  O_3 
ROOT
HETATM    1  C   LIG     1      13.387  30.871  16.291  1.00  0.00     0.039 C 
HETATM    2  C   LIG     1      13.840  32.130  17.040  1.00  0.00     0.113 C 
ENDROOT
BRANCH   2   3
HETATM    3  C   LIG     1      15.223  32.622  16.572  1.00  0.00     0.027 C 
HETATM    4  C   LIG     1      15.675  32.010  15.244  1.00  0.00     0.007 C 
ENDBRANCH   2   3
BRANCH   2   5
HETATM    5  O   LIG     1      13.861  31.890  18.424  1.00  0.00    -0.396 OA
HETATM    6  H   LIG     1      13.480  30.985  18.565  1.00  0.00     0.210 HD
ENDBRANCH   2   5
TORSDOF 2
ENDMDL
MODEL 14
REMARK VINA RESULT:      -3.2     11.263     12.227
REMARK  2 active torsions:
REMARK  status: ('A' for Active; 'I' for Inactive)
REMARK    1  A    between atoms: C_2  and  C_4 
REMARK    2  A    between atoms: C_2  and  O_3 
ROOT
HETATM    1  C   LIG     1      13.871  32.164  16.933  1.00  0.00     0.039 C 
HETATM    2  C   LIG     1      13.629  30.705  16.527  1.00  0.00     0.113 C 
ENDROOT
BRANCH   2   3
HETATM    3  C   LIG     1      13.958  30.450  15.043  1.00  0.00     0.027 C 
HETATM    4  C   LIG     1      15.348  30.938  14.629  1.00  0.00     0.007 C 
ENDBRANCH   2   3
BRANCH   2   5
HETATM    5  O   LIG     1      12.299  30.341  16.792  1.00  0.00    -0.396 OA
HETATM    6  H   LIG     1      12.228  30.206  17.772  1.00  0.00     0.210 HD
ENDBRANCH   2   5
TORSDOF 2
ENDMDL
MODEL 15
REMARK VINA RESULT:      -3.1     12.029     12.936
REMARK  2 active torsions:
REMARK  status: ('A' for Active; 'I' for Inactive)
REMARK    1  A    between atoms: C_2  and  C_4 
REMARK    2  A    between atoms: C_2  and  O_3 
ROOT
HETATM    1  C   LIG     1      16.673  32.286  15.302  1.00  0.00     0.039 C 
HETATM    2  C   LIG     1      15.984  32.034  13.955  1.00  0.00     0.113 C 
ENDROOT
BRANCH   2   3
HETATM    3  C   LIG     1      15.363  30.626  13.871  1.00  0.00     0.027 C 
HETATM    4  C   LIG     1      14.292  30.364  14.932  1.00  0.00     0.007 C 
ENDBRANCH   2   3
BRANCH   2   5
HETATM    5  O   LIG     1      16.895  32.219  12.902  1.00  0.00    -0.396 OA
HETATM    6  H   LIG     1      17.117  33.186  12.881  1.00  0.00     0.210 HD
ENDBRANCH   2   5
TORSDOF 2
ENDMDL
MODEL 16
REMARK VINA RESULT:      -3.1      3.968      4.695
REMARK  2 active torsions:
REMARK  status: ('A' for Active; 'I' for Inactive)
REMARK    1  A    between atoms: C_2  and  C_4 
REMARK    2  A    between atoms: C_2  and  O_3 
ROOT
HETATM    1  C   LIG     1      17.734  36.596  20.800  1.00  0.00     0.039 C 
HETATM    2  C   LIG     1      17.281  37.651  21.816  1.00  0.00     0.113 C 
ENDROOT
BRANCH   2   3
HETATM    3  C   LIG     1      18.257  38.840  21.899  1.00  0.00     0.027 C 
HETATM    4  C   LIG     1      18.801  39.283  20.539  1.00  0.00     0.007 C 
ENDBRANCH   2   3
BRANCH   2   5
HETATM    5  O   LIG     1      17.127  37.068  23.085  1.00  0.00    -0.396 OA
HETATM    6  H   LIG     1      17.577  36.184  23.052  1.00  0.00     0.210 HD
ENDBRANCH   2   5
TORSDOF 2
ENDMDL
MODEL 17
REMARK VINA RESULT:      -3.0     10.024     10.634
REMARK  2 active torsions:
REMARK  status: ('A' for Active; 'I' for Inactive)
REMARK    1  A    between atoms: C_2  and  C_4 
REMARK    2  A    between atoms: C_2  and  O_3 
ROOT
HETATM    1  C   LIG     1      15.876  32.509  15.425  1.00  0.00     0.039 C 
HETATM    2  C   LIG     1      15.224  33.059  16.700  1.00  0.00     0.113 C 
ENDROOT
BRANCH   2   3
HETATM    3  C   LIG     1      13.880  32.373  17.011  1.00  0.00     0.027 C 
HETATM    4  C   LIG     1      13.723  31.002  16.350  1.00  0.00     0.007 C 
ENDBRANCH   2   3
BRANCH   2   5
HETATM    5  O   LIG     1      15.038  34.447  16.590  1.00  0.00    -0.396 OA
HETATM    6  H   LIG     1      15.684  34.770  15.910  1.00  0.00     0.210 HD
ENDBRANCH   2   5
TORSDOF 2
ENDMDL
MODEL 18
REMARK VINA RESULT:      -2.9      9.458     10.495
REMARK  2 active torsions:
REMARK  status: ('A' for Active; 'I' for Inactive)
REMARK    1  A    between atoms: C_2  and  C_4 
REMARK    2  A    between atoms: C_2  and  O_3 
ROOT
HETATM    1  C   LIG     1      15.099  32.621  17.799  1.00  0.00     0.039 C 
HETATM    2  C   LIG     1      15.249  33.226  16.398  1.00  0.00     0.113 C 
ENDROOT
BRANCH   2   3
HETATM    3  C   LIG     1      16.094  32.338  15.465  1.00  0.00     0.027 C 
HETATM    4  C   LIG     1      17.304  33.056  14.864  1.00  0.00     0.007 C 
ENDBRANCH   2   3
BRANCH   2   5
HETATM    5  O   LIG     1      15.815  34.509  16.480  1.00  0.00    -0.396 OA
HETATM    6  H   LIG     1      16.632  34.426  17.038  1.00  0.00     0.210 HD
ENDBRANCH   2   5
TORSDOF 2
ENDMDL
MODEL 19
REMARK VINA RESULT:      -2.9      4.201      4.850
REMARK  2 active torsions:
REMARK  status: ('A' for Active; 'I' for Inactive)
REMARK    1  A    between atoms: C_2  and  C_4 
REMARK    2  A    between atoms: C_2  and  O_3 
ROOT
HETATM    1  C   LIG     1      15.123  35.704  21.375  1.00  0.00     0.039 C 
HETATM    2  C   LIG     1      16.497  36.092  21.936  1.00  0.00     0.113 C 
ENDROOT
BRANCH   2   3
HETATM    3  C   LIG     1      17.546  36.292  20.826  1.00  0.00     0.027 C 
HETATM    4  C   LIG     1      18.182  37.684  20.825  1.00  0.00     0.007 C 
ENDBRANCH   2   3
BRANCH   2   5
HETATM    5  O   LIG     1      16.942  35.120  22.846  1.00  0.00    -0.396 OA
HETATM    6  H   LIG     1      17.626  34.577  22.375  1.00  0.00     0.210 HD
ENDBRANCH   2   5
TORSDOF 2
ENDMDL
MODEL 20
REMARK VINA RESULT:      -2.9      2.651      3.185
REMARK  2 active torsions:
REMARK  status: ('A' for Active; 'I' for Inactive)
REMARK    1  A    between atoms: C_2  and  C_4 
REMARK    2  A    between atoms: C_2  and  O_3 
ROOT
HETATM    1  C   LIG     1      17.400  37.600  21.908  1.00  0.00     0.039 C 
HETATM    2  C   LIG     1      16.621  36.806  22.964  1.00  0.00     0.113 C 
ENDROOT
BRANCH   2   3
HETATM    3  C   LIG     1      16.778  37.402  24.376  1.00  0.00     0.027 C 
HETATM    4  C   LIG     1      18.135  38.070  24.613  1.00  0.00     0.007 C 
ENDBRANCH   2   3
BRANCH   2   5
HETATM    5  O   LIG     1      17.031  35.463  22.963  1.00  0.00    -0.396 OA
HETATM    6  H   LIG     1      17.596  35.335  23.769  1.00  0.00     0.210 HD
ENDBRANCH   2   5
TORSDOF 2
ENDMDL
