MODEL 1
REMARK VINA RESULT:      -4.1      0.000      0.000
REMARK  1 active torsions:
REMARK  status: ('A' for Active; 'I' for Inactive)
REMARK    1  A    between atoms: C_2  and  C_3 
ROOT
HETATM    1  C   LIG     1      17.075  36.819  24.043  1.00  0.00     0.091 C 
HETATM    2  C   LIG     1      17.490  37.426  25.349  1.00  0.00     0.122 C 
HETATM    3  O   LIG     1      17.132  38.559  25.632  1.00  0.00    -0.298 OA
ENDROOT
BRANCH   2   4
HETATM    4  C   LIG     1      18.356  36.654  26.307  1.00  0.00     0.073 C 
HETATM    5  C   LIG     1      18.067  35.160  26.221  1.00  0.00     0.013 C 
ENDBRANCH   2   4
TORSDOF 1
ENDMDL
MODEL 2
REMARK VINA RESULT:      -3.8      5.158      6.027
REMARK  1 active torsions:
REMARK  status: ('A' for Active; 'I' for Inactive)
REMARK    1  A    between atoms: C_2  and  C_3 
ROOT
HETATM    1  C   LIG     1      19.274  37.329  19.514  1.00  0.00     0.091 C 
HETATM    2  C   LIG     1      19.561  38.753  19.886  1.00  0.00     0.122 C 
HETATM    3  O   LIG     1      20.466  39.355  19.328  1.00  0.00    -0.298 OA
ENDROOT
BRANCH   2   4
HETATM    4  C   LIG     1      18.751  39.440  20.952  1.00  0.00     0.073 C 
HETATM    5  C   LIG     1      17.799  38.461  21.629  1.00  0.00     0.013 C 
ENDBRANCH   2   4
TORSDOF 1
ENDMDL
MODEL 3
REMARK VINA RESULT:      -3.8      5.635      6.112
REMARK  1 active torsions:
REMARK  status: ('A' for Active; 'I' for Inactive)
REMARK    1  A    between atoms: C_2  and  C_3 
ROOT
HETATM    1  C   LIG     1      18.732  39.341  21.115  1.00  0.00     0.091 C 
HETATM    2  C   LIG     1      19.508  38.760  19.972  1.00  0.00     0.122 C 
HETATM    3  O   LIG     1      20.377  39.425  19.429  1.00  0.00    -0.298 OA
ENDROOT
BRANCH   2   4
HETATM    4  C   LIG     1      19.214  37.370  19.479  1.00  0.00     0.073 C 
HETATM    5  C   LIG     1      18.169  36.689  20.356  1.00  0.00     0.013 C 
ENDBRANCH   2   4
TORSDOF 1
ENDMDL
MODEL 4
REMARK VINA RESULT:      -3.7      0.861      1.844
REMARK  1 active torsions:
REMARK  status: ('A' for Active; 'I' for Inactive)
REMARK    1  A    between atoms: C_2  and  C_3 
ROOT
HETATM    1  C   LIG     1      18.489  36.791  26.443  1.00  0.00     0.091 C 
HETATM    2  C   LIG     1      17.483  37.284  25.447  1.00  0.00     0.122 C 
HETATM    3  O   LIG     1      16.965  38.380  25.601  1.00  0.00    -0.298 OA
ENDROOT
BRANCH   2   4
HETATM    4  C   LIG     1      17.098  36.434  24.268  1.00  0.00     0.073 C 
HETATM    5  C   LIG     1      17.268  34.952  24.584  1.00  0.00     0.013 C 
ENDBRANCH   2   4
TORSDOF 1
ENDMDL
MODEL 5
REMARK VINA RESULT:      -3.6      1.497      1.626
REMARK  1 active torsions:
REMARK  status: ('A' for Active; 'I' for Inactive)
REMARK    1  A    between atoms: C_2  and  C_3 
ROOT
HETATM    1  C   LIG     1      17.807  38.510  22.925  1.00  0.00     0.091 C 
HETATM    2  C   LIG     1      17.156  37.972  24.164  1.00  0.00     0.122 C 
HETATM    3  O   LIG     1      15.937  37.946  24.246  1.00  0.00    -0.298 OA
ENDROOT
BRANCH   2   4
HETATM    4  C   LIG     1      17.994  37.476  25.310  1.00  0.00     0.073 C 
HETATM    5  C   LIG     1      17.728  36.000  25.583  1.00  0.00     0.013 C 
ENDBRANCH   2   4
TORSDOF 1
ENDMDL
MODEL 6
REMARK VINA RESULT:      -3.6      1.720      2.729
REMARK  1 active torsions:
REMARK  status: ('A' for Active; 'I' for Inactive)
REMARK    1  A    between atoms: C_2  and  C_3 
ROOT
HETATM    1  C   LIG     1      18.104  34.849  26.310  1.00  0.00     0.091 C 
HETATM    2  C   LIG     1      17.634  35.908  25.358  1.00  0.00     0.122 C 
HETATM    3  O   LIG     1      17.233  35.591  24.248  1.00  0.00    -0.298 OA
ENDROOT
BRANCH   2   4
HETATM    4  C   LIG     1      17.666  37.358  25.756  1.00  0.00     0.073 C 
HETATM    5  C   LIG     1      17.436  38.261  24.550  1.00  0.00     0.013 C 
ENDBRANCH   2   4
TORSDOF 1
ENDMDL
MODEL 7
REMARK VINA RESULT:      -3.5      2.712      3.583
REMARK  1 active torsions:
REMARK  status: ('A' for Active; 'I' for Inactive)
REMARK    1  A    between atoms: C_2  and  C_3 
ROOT
HETATM    1  C   LIG     1      16.841  36.372  22.811  1.00  0.00     0.091 C 
HETATM    2  C   LIG     1      16.621  37.759  23.334  1.00  0.00     0.122 C 
HETATM    3  O   LIG     1      16.213  37.919  24.475  1.00  0.00    -0.298 OA
ENDROOT
BRANCH   2   4
HETATM    4  C   LIG     1      16.886  38.954  22.461  1.00  0.00     0.073 C 
HETATM    5  C   LIG     1      18.326  38.955  21.958  1.00  0.00     0.013 C 
ENDBRANCH   2   4
TORSDOF 1
ENDMDL
MODEL 8
REMARK VINA RESULT:      -3.4      5.320      6.000
REMARK  1 active torsions:
REMARK  status: ('A' for Active; 'I' for Inactive)
REMARK    1  A    between atoms: C_2  and  C_3 
ROOT
HETATM    1  C   LIG     1      17.400  36.123  20.885  1.00  0.00     0.091 C 
HETATM    2  C   LIG     1      18.402  36.975  20.165  1.00  0.00     0.122 C 
HETATM    3  O   LIG     1      19.024  36.511  19.221  1.00  0.00    -0.298 OA
ENDROOT
BRANCH   2   4
HETATM    4  C   LIG     1      18.657  38.390  20.606  1.00  0.00     0.073 C 
HETATM    5  C   LIG     1      19.915  38.948  19.952  1.00  0.00     0.013 C 
ENDBRANCH   2   4
TORSDOF 1
ENDMDL
MODEL 9
REMARK VINA RESULT:      -3.4      2.649      3.224
REMARK  1 active torsions:
REMARK  status: ('A' for Active; 'I' for Inactive)
REMARK    1  A    between atoms: C_2  and  C_3 
ROOT
HETATM    1  C   LIG     1      17.617  38.593  22.594  1.00  0.00     0.091 C 
HETATM    2  C   LIG     1      16.778  37.578  23.310  1.00  0.00     0.122 C 
HETATM    3  O   LIG     1      16.044  37.932  24.221  1.00  0.00    -0.298 OA
ENDROOT
BRANCH   2   4
HETATM    4  C   LIG     1      16.843  36.126  22.923  1.00  0.00     0.073 C 
HETATM    5  C   LIG     1      17.202  35.968  21.450  1.00  0.00     0.013 C 
ENDBRANCH   2   4
TORSDOF 1
ENDMDL
MODEL 10
REMARK VINA RESULT:      -3.3     10.126     11.170
REMARK  1 active torsions:
REMARK  status: ('A' for Active; 'I' for Inactive)
REMARK    1  A    between atoms: C_2  and  C_3 
ROOT
HETATM    1  C   LIG     1      14.755  32.865  16.826  1.00  0.00     0.091 C 
HETATM    2  C   LIG     1      13.984  31.651  17.252  1.00  0.00     0.122 C 
HETATM    3  O   LIG     1      14.069  31.251  18.403  1.00  0.00    -0.298 OA
ENDROOT
BRANCH   2   4
HETATM    4  C   LIG     1      13.117  30.916  16.267  1.00  0.00     0.073 C 
HETATM    5  C   LIG     1      13.949  30.362  15.115  1.00  0.00     0.013 C 
ENDBRANCH   2   4
TORSDOF 1
ENDMDL
MODEL 11
REMARK VINA RESULT:      -3.3      3.838      4.731
REMARK  1 active torsions:
REMARK  status: ('A' for Active; 'I' for Inactive)
REMARK    1  A    between atoms: C_2  and  C_3 
ROOT
HETATM    1  C   LIG     1      18.896  36.894  19.590  1.00  0.00     0.091 C 
HETATM    2  C   LIG     1      17.896  36.874  20.707  1.00  0.00     0.122 C 
HETATM    3  O   LIG     1      17.835  37.815  21.484  1.00  0.00    -0.298 OA
ENDROOT
BRANCH   2   4
HETATM    4  C   LIG     1      16.979  35.696  20.887  1.00  0.00     0.073 C 
HETATM    5  C   LIG     1      16.938  35.251  22.344  1.00  0.00     0.013 C 
ENDBRANCH   2   4
TORSDOF 1
ENDMDL
MODEL 12
REMARK VINA RESULT:      -3.1     11.713     11.939
REMARK  1 active torsions:
REMARK  status: ('A' for Active; 'I' for Inactive)
REMARK    1  A    between atoms: C_2  and  C_3 
ROOT
HETATM    1  C   LIG     1      25.868  38.187  17.526  1.00  0.00     0.091 C 
HETATM    2  C   LIG     1      26.934  37.902  18.542  1.00  0.00     0.122 C 
HETATM    3  O   LIG     1      26.827  36.930  19.275  1.00  0.00    -0.298 OA
ENDROOT
BRANCH   2   4
HETATM    4  C   LIG     1      28.124  38.811  18.673  1.00  0.00     0.073 C 
HETATM    5  C   LIG     1      27.931  39.803  19.814  1.00  0.00     0.013 C 
ENDBRANCH   2   4
TORSDOF 1
ENDMDL
MODEL 13
REMARK VINA RESULT:      -3.1     12.121     12.816
REMARK  1 active torsions:
REMARK  status: ('A' for Active; 'I' for Inactive)
REMARK    1  A    between atoms: C_2  and  C_3 
ROOT
HETATM    1  C   LIG     1      15.721  32.132  15.225  1.00  0.00     0.091 C 
HETATM    2  C   LIG     1      15.302  30.956  14.394  1.00  0.00     0.122 C 
HETATM    3  O   LIG     1      15.933  30.669  13.388  1.00  0.00    -0.298 OA
ENDROOT
BRANCH   2   4
HETATM    4  C   LIG     1      14.102  30.137  14.784  1.00  0.00     0.073 C 
HETATM    5  C   LIG     1      13.391  30.748  15.986  1.00  0.00     0.013 C 
ENDBRANCH   2   4
TORSDOF 1
ENDMDL
MODEL 14
REMARK VINA RESULT:      -3.1     12.424     13.153
REMARK  1 active torsions:
REMARK  status: ('A' for Active; 'I' for Inactive)
REMARK    1  A    between atoms: C_2  and  C_3 
ROOT
HETATM    1  C   LIG     1      15.325  29.792  13.742  1.00  0.00     0.091 C 
HETATM    2  C   LIG     1      14.142  29.989  14.643  1.00  0.00     0.122 C 
HETATM    3  O   LIG     1      13.108  29.375  14.429  1.00  0.00    -0.298 OA
ENDROOT
BRANCH   2   4
HETATM    4  C   LIG     1      14.217  30.949  15.799  1.00  0.00     0.073 C 
HETATM    5  C   LIG     1      12.846  31.146  16.435  1.00  0.00     0.013 C 
ENDBRANCH   2   4
TORSDOF 1
ENDMDL
MODEL 15
REMARK VINA RESULT:      -3.1      6.544      7.249
REMARK  1 active torsions:
REMARK  status: ('A' for Active; 'I' for Inactive)
REMARK    1  A    between atoms: C_2  and  C_3 
ROOT
HETATM    1  C   LIG     1      18.750  39.639  17.304  1.00  0.00     0.091 C 
HETATM    2  C   LIG     1      19.260  39.003  18.562  1.00  0.00     0.122 C 
HETATM    3  O   LIG     1      20.239  39.471  19.124  1.00  0.00    -0.298 OA
ENDROOT
BRANCH   2   4
HETATM    4  C   LIG     1      18.585  37.784  19.129  1.00  0.00     0.073 C 
HETATM    5  C   LIG     1      19.610  36.743  19.562  1.00  0.00     0.013 C 
ENDBRANCH   2   4
TORSDOF 1
ENDMDL
MODEL 16
REMARK VINA RESULT:      -3.1      8.516      9.369
REMARK  1 active torsions:
REMARK  status: ('A' for Active; 'I' for Inactive)
REMARK    1  A    between atoms: C_2  and  C_3 
ROOT
HETATM    1  C   LIG     1      15.290  32.689  16.912  1.00  0.00     0.091 C 
HETATM    2  C   LIG     1      14.363  31.945  17.825  1.00  0.00     0.122 C 
HETATM    3  O   LIG     1      13.280  31.563  17.409  1.00  0.00    -0.298 OA
ENDROOT
BRANCH   2   4
HETATM    4  C   LIG     1      14.752  31.680  19.254  1.00  0.00     0.073 C 
HETATM    5  C   LIG     1      15.483  32.876  19.852  1.00  0.00     0.013 C 
ENDBRANCH   2   4
TORSDOF 1
ENDMDL
MODEL 17
REMARK VINA RESULT:      -3.1      9.693     10.319
REMARK  1 active torsions:
REMARK  status: ('A' for Active; 'I' for Inactive)
REMARK    1  A    between atoms: C_2  and  C_3 
ROOT
HETATM    1  C   LIG     1      16.084  32.397  15.292  1.00  0.00     0.091 C 
HETATM    2  C   LIG     1      15.474  33.209  16.395  1.00  0.00     0.122 C 
HETATM    3  O   LIG     1      15.660  34.415  16.435  1.00  0.00    -0.298 OA
ENDROOT
BRANCH   2   4
HETATM    4  C   LIG     1      14.645  32.545  17.460  1.00  0.00     0.073 C 
HETATM    5  C   LIG     1      13.542  31.692  16.842  1.00  0.00     0.013 C 
ENDBRANCH   2   4
TORSDOF 1
ENDMDL
MODEL 18
REMARK VINA RESULT:      -3.0     10.574     11.365
REMARK  1 active torsions:
REMARK  status: ('A' for Active; 'I' for Inactive)
REMARK    1  A    between atoms: C_2  and  C_3 
ROOT
HETATM    1  C   LIG     1      14.181  30.516  15.240  1.00  0.00     0.091 C 
HETATM    2  C   LIG     1      13.580  31.065  16.499  1.00  0.00     0.122 C 
HETATM    3  O   LIG     1      12.462  30.712  16.841  1.00  0.00    -0.298 OA
ENDROOT
BRANCH   2   4
HETATM    4  C   LIG     1      14.339  32.058  17.335  1.00  0.00     0.073 C 
HETATM    5  C   LIG     1      15.319  32.855  16.482  1.00  0.00     0.013 C 
ENDBRANCH   2   4
TORSDOF 1
ENDMDL
MODEL 19
REMARK VINA RESULT:      -3.0      3.474      4.620
REMARK  1 active torsions:
REMARK  status: ('A' for Active; 'I' for Inactive)
REMARK    1  A    between atoms: C_2  and  C_3 
ROOT
HETATM    1  C   LIG     1      17.101  35.156  23.743  1.00  0.00     0.091 C 
HETATM    2  C   LIG     1      16.742  35.459  22.319  1.00  0.00     0.122 C 
HETATM    3  O   LIG     1      16.115  34.640  21.664  1.00  0.00    -0.298 OA
ENDROOT
BRANCH   2   4
HETATM    4  C   LIG     1      17.162  36.759  21.688  1.00  0.00     0.073 C 
HETATM    5  C   LIG     1      17.992  36.514  20.433  1.00  0.00     0.013 C 
ENDBRANCH   2   4
TORSDOF 1
ENDMDL
MODEL 20
REMARK VINA RESULT:      -2.9     11.573     12.240
REMARK  1 active torsions:
REMARK  status: ('A' for Active; 'I' for Inactive)
REMARK    1  A    between atoms: C_2  and  C_3 
ROOT
HETATM    1  C   LIG     1      16.440  32.474  13.617  1.00  0.00     0.091 C 
HETATM    2  C   LIG     1      15.993  32.053  14.985  1.00  0.00     0.122 C 
HETATM    3  O   LIG     1      16.534  32.528  15.972  1.00  0.00    -0.298 OA
ENDROOT
BRANCH   2   4
HETATM    4  C   LIG     1      14.895  31.039  15.149  1.00  0.00     0.073 C 
HETATM    5  C   LIG     1      14.957  29.983  14.051  1.00  0.00     0.013 C 
ENDBRANCH   2   4
TORSDOF 1
ENDMDL
