MODEL 1
REMARK VINA RESULT:      -6.9      0.000      0.000
REMARK  0 active torsions:
REMARK  status: ('A' for Active; 'I' for Inactive)
ROOT
HETATM    1  C   LIG     1      19.115  39.612  23.094  1.00  0.00     0.050 C 
HETATM    2  C   LIG     1      18.418  38.372  22.549  1.00  0.00    -0.040 C 
HETATM    3  C   LIG     1      18.403  38.143  21.147  1.00  0.00    -0.019 A 
HETATM    4  C   LIG     1      17.943  36.900  20.628  1.00  0.00    -0.019 A 
HETATM    5  C   LIG     1      18.069  36.657  19.237  1.00  0.00     0.013 A 
HETATM    6  C   LIG     1      18.545  37.641  18.375  1.00  0.00     0.001 A 
HETATM    7  C   LIG     1      18.909  38.884  18.869  1.00  0.00     0.001 A 
HETATM    8  C   LIG     1      18.843  39.137  20.237  1.00  0.00     0.013 A 
HETATM    9  C   LIG     1      17.870  37.393  23.423  1.00  0.00    -0.019 C 
HETATM   10  C   LIG     1      17.728  37.633  24.813  1.00  0.00     0.013 C 
HETATM   11  C   LIG     1      17.287  36.634  25.676  1.00  0.00     0.001 C 
HETATM   12  C   LIG     1      16.973  35.377  25.182  1.00  0.00     0.001 C 
HETATM   13  C   LIG     1      17.037  35.130  23.814  1.00  0.00     0.013 C 
HETATM   14  C   LIG     1      17.428  36.142  22.903  1.00  0.00    -0.019 C 
HETATM   15  C   LIG     1      17.385  35.927  21.500  1.00  0.00    -0.040 C 
HETATM   16  C   LIG     1      16.703  34.690  20.933  1.00  0.00     0.050 C 
ENDROOT
TORSDOF 0
ENDMDL
MODEL 2
REMARK VINA RESULT:      -5.3      6.599      9.337
REMARK  0 active torsions:
REMARK  status: ('A' for Active; 'I' for Inactive)
ROOT
HETATM    1  C   LIG     1      15.589  30.402  12.916  1.00  0.00     0.050 C 
HETATM    2  C   LIG     1      15.584  31.342  14.114  1.00  0.00    -0.040 C 
HETATM    3  C   LIG     1      16.495  32.431  14.146  1.00  0.00    -0.019 A 
HETATM    4  C   LIG     1      16.375  33.439  15.145  1.00  0.00    -0.019 A 
HETATM    5  C   LIG     1      17.215  34.577  15.065  1.00  0.00     0.013 A 
HETATM    6  C   LIG     1      18.204  34.676  14.090  1.00  0.00     0.001 A 
HETATM    7  C   LIG     1      18.379  33.652  13.170  1.00  0.00     0.001 A 
HETATM    8  C   LIG     1      17.538  32.544  13.191  1.00  0.00     0.013 A 
HETATM    9  C   LIG     1      14.618  31.208  15.149  1.00  0.00    -0.019 C 
HETATM   10  C   LIG     1      13.783  30.066  15.244  1.00  0.00     0.013 C 
HETATM   11  C   LIG     1      12.772  29.989  16.198  1.00  0.00     0.001 C 
HETATM   12  C   LIG     1      12.569  31.038  17.082  1.00  0.00     0.001 C 
HETATM   13  C   LIG     1      13.414  32.143  17.058  1.00  0.00     0.013 C 
HETATM   14  C   LIG     1      14.487  32.227  16.137  1.00  0.00    -0.019 C 
HETATM   15  C   LIG     1      15.418  33.298  16.185  1.00  0.00    -0.040 C 
HETATM   16  C   LIG     1      15.425  34.257  17.368  1.00  0.00     0.050 C 
ENDROOT
TORSDOF 0
ENDMDL
MODEL 3
REMARK VINA RESULT:      -5.3      0.533      4.594
REMARK  0 active torsions:
REMARK  status: ('A' for Active; 'I' for Inactive)
ROOT
HETATM    1  C   LIG     1      18.708  40.122  22.574  1.00  0.00     0.050 C 
HETATM    2  C   LIG     1      18.408  38.661  22.266  1.00  0.00    -0.040 C 
HETATM    3  C   LIG     1      17.974  37.805  23.313  1.00  0.00    -0.019 A 
HETATM    4  C   LIG     1      17.492  36.498  23.019  1.00  0.00    -0.019 A 
HETATM    5  C   LIG     1      16.944  35.724  24.072  1.00  0.00     0.013 A 
HETATM    6  C   LIG     1      16.956  36.184  25.386  1.00  0.00     0.001 A 
HETATM    7  C   LIG     1      17.507  37.421  25.686  1.00  0.00     0.001 A 
HETATM    8  C   LIG     1      18.009  38.226  24.667  1.00  0.00     0.013 A 
HETATM    9  C   LIG     1      18.457  38.166  20.934  1.00  0.00    -0.019 C 
HETATM   10  C   LIG     1      19.017  38.928  19.877  1.00  0.00     0.013 C 
HETATM   11  C   LIG     1      18.968  38.479  18.560  1.00  0.00     0.001 C 
HETATM   12  C   LIG     1      18.370  37.265  18.261  1.00  0.00     0.001 C 
HETATM   13  C   LIG     1      17.872  36.462  19.283  1.00  0.00     0.013 C 
HETATM   14  C   LIG     1      17.957  36.864  20.639  1.00  0.00    -0.019 C 
HETATM   15  C   LIG     1      17.553  35.999  21.691  1.00  0.00    -0.040 C 
HETATM   16  C   LIG     1      17.238  34.537  21.405  1.00  0.00     0.050 C 
ENDROOT
TORSDOF 0
ENDMDL
MODEL 4
REMARK VINA RESULT:      -5.3     16.054     16.771
REMARK  0 active torsions:
REMARK  status: ('A' for Active; 'I' for Inactive)
ROOT
HETATM    1  C   LIG     1      27.148  24.229  20.542  1.00  0.00     0.050 C 
HETATM    2  C   LIG     1      26.063  23.316  21.098  1.00  0.00    -0.040 C 
HETATM    3  C   LIG     1      25.976  23.117  22.502  1.00  0.00    -0.019 A 
HETATM    4  C   LIG     1      24.856  22.440  23.063  1.00  0.00    -0.019 A 
HETATM    5  C   LIG     1      24.736  22.379  24.474  1.00  0.00     0.013 A 
HETATM    6  C   LIG     1      25.734  22.885  25.303  1.00  0.00     0.001 A 
HETATM    7  C   LIG     1      26.868  23.465  24.755  1.00  0.00     0.001 A 
HETATM    8  C   LIG     1      26.992  23.584  23.374  1.00  0.00     0.013 A 
HETATM    9  C   LIG     1      25.078  22.741  20.248  1.00  0.00    -0.019 C 
HETATM   10  C   LIG     1      25.198  22.786  18.836  1.00  0.00     0.013 C 
HETATM   11  C   LIG     1      24.181  22.313  18.012  1.00  0.00     0.001 C 
HETATM   12  C   LIG     1      23.026  21.780  18.566  1.00  0.00     0.001 C 
HETATM   13  C   LIG     1      22.908  21.660  19.947  1.00  0.00     0.013 C 
HETATM   14  C   LIG     1      23.949  22.081  20.812  1.00  0.00    -0.019 C 
HETATM   15  C   LIG     1      23.879  21.856  22.213  1.00  0.00    -0.040 C 
HETATM   16  C   LIG     1      22.797  20.956  22.793  1.00  0.00     0.050 C 
ENDROOT
TORSDOF 0
ENDMDL
MODEL 5
REMARK VINA RESULT:      -5.2     16.066     16.942
REMARK  0 active torsions:
REMARK  status: ('A' for Active; 'I' for Inactive)
ROOT
HETATM    1  C   LIG     1      22.800  20.939  22.758  1.00  0.00     0.050 C 
HETATM    2  C   LIG     1      23.873  21.852  22.180  1.00  0.00    -0.040 C 
HETATM    3  C   LIG     1      24.843  22.420  23.047  1.00  0.00    -0.019 A 
HETATM    4  C   LIG     1      25.971  23.105  22.513  1.00  0.00    -0.019 A 
HETATM    5  C   LIG     1      26.985  23.541  23.402  1.00  0.00     0.013 A 
HETATM    6  C   LIG     1      26.849  23.390  24.779  1.00  0.00     0.001 A 
HETATM    7  C   LIG     1      25.708  22.802  25.306  1.00  0.00     0.001 A 
HETATM    8  C   LIG     1      24.716  22.320  24.456  1.00  0.00     0.013 A 
HETATM    9  C   LIG     1      23.979  22.064  20.777  1.00  0.00    -0.019 C 
HETATM   10  C   LIG     1      22.963  21.645  19.883  1.00  0.00     0.013 C 
HETATM   11  C   LIG     1      23.121  21.764  18.505  1.00  0.00     0.001 C 
HETATM   12  C   LIG     1      24.286  22.305  17.983  1.00  0.00     0.001 C 
HETATM   13  C   LIG     1      25.273  22.789  18.836  1.00  0.00     0.013 C 
HETATM   14  C   LIG     1      25.118  22.734  20.243  1.00  0.00    -0.019 C 
HETATM   15  C   LIG     1      26.071  23.327  21.113  1.00  0.00    -0.040 C 
HETATM   16  C   LIG     1      27.159  24.236  20.556  1.00  0.00     0.050 C 
ENDROOT
TORSDOF 0
ENDMDL
MODEL 6
REMARK VINA RESULT:      -5.2     15.761     16.457
REMARK  0 active torsions:
REMARK  status: ('A' for Active; 'I' for Inactive)
ROOT
HETATM    1  C   LIG     1      23.057  21.795  18.905  1.00  0.00     0.050 C 
HETATM    2  C   LIG     1      24.063  22.120  20.001  1.00  0.00    -0.040 C 
HETATM    3  C   LIG     1      25.135  23.008  19.718  1.00  0.00    -0.019 A 
HETATM    4  C   LIG     1      25.966  23.488  20.770  1.00  0.00    -0.019 A 
HETATM    5  C   LIG     1      26.938  24.474  20.470  1.00  0.00     0.013 A 
HETATM    6  C   LIG     1      27.150  24.903  19.162  1.00  0.00     0.001 A 
HETATM    7  C   LIG     1      26.401  24.369  18.124  1.00  0.00     0.001 A 
HETATM    8  C   LIG     1      25.404  23.435  18.393  1.00  0.00     0.013 A 
HETATM    9  C   LIG     1      23.890  21.632  21.325  1.00  0.00    -0.019 C 
HETATM   10  C   LIG     1      22.929  20.636  21.631  1.00  0.00     0.013 C 
HETATM   11  C   LIG     1      22.696  20.238  22.945  1.00  0.00     0.001 C 
HETATM   12  C   LIG     1      23.413  20.813  23.983  1.00  0.00     0.001 C 
HETATM   13  C   LIG     1      24.410  21.744  23.710  1.00  0.00     0.013 C 
HETATM   14  C   LIG     1      24.710  22.129  22.380  1.00  0.00    -0.019 C 
HETATM   15  C   LIG     1      25.801  22.991  22.090  1.00  0.00    -0.040 C 
HETATM   16  C   LIG     1      26.814  23.339  23.173  1.00  0.00     0.050 C 
ENDROOT
TORSDOF 0
ENDMDL
MODEL 7
REMARK VINA RESULT:      -5.2     15.770     16.220
REMARK  0 active torsions:
REMARK  status: ('A' for Active; 'I' for Inactive)
ROOT
HETATM    1  C   LIG     1      26.901  23.437  23.138  1.00  0.00     0.050 C 
HETATM    2  C   LIG     1      25.840  23.081  22.105  1.00  0.00    -0.040 C 
HETATM    3  C   LIG     1      25.983  23.551  20.773  1.00  0.00    -0.019 A 
HETATM    4  C   LIG     1      25.124  23.067  19.745  1.00  0.00    -0.019 A 
HETATM    5  C   LIG     1      25.382  23.455  18.407  1.00  0.00     0.013 A 
HETATM    6  C   LIG     1      26.393  24.363  18.102  1.00  0.00     0.001 A 
HETATM    7  C   LIG     1      27.172  24.903  19.114  1.00  0.00     0.001 A 
HETATM    8  C   LIG     1      26.976  24.505  20.433  1.00  0.00     0.013 A 
HETATM    9  C   LIG     1      24.766  22.205  22.426  1.00  0.00    -0.019 C 
HETATM   10  C   LIG     1      24.493  21.824  23.764  1.00  0.00     0.013 C 
HETATM   11  C   LIG     1      23.506  20.887  24.059  1.00  0.00     0.001 C 
HETATM   12  C   LIG     1      22.764  20.313  23.038  1.00  0.00     0.001 C 
HETATM   13  C   LIG     1      22.962  20.716  21.721  1.00  0.00     0.013 C 
HETATM   14  C   LIG     1      23.920  21.708  21.394  1.00  0.00    -0.019 C 
HETATM   15  C   LIG     1      24.044  22.203  20.068  1.00  0.00    -0.040 C 
HETATM   16  C   LIG     1      23.002  21.851  19.016  1.00  0.00     0.050 C 
ENDROOT
TORSDOF 0
ENDMDL
MODEL 8
REMARK VINA RESULT:      -5.2      6.593      8.963
REMARK  0 active torsions:
REMARK  status: ('A' for Active; 'I' for Inactive)
ROOT
HETATM    1  C   LIG     1      15.385  34.231  17.402  1.00  0.00     0.050 C 
HETATM    2  C   LIG     1      15.366  33.288  16.206  1.00  0.00    -0.040 C 
HETATM    3  C   LIG     1      16.336  33.447  15.181  1.00  0.00    -0.019 A 
HETATM    4  C   LIG     1      16.472  32.461  14.162  1.00  0.00    -0.019 A 
HETATM    5  C   LIG     1      17.537  32.585  13.236  1.00  0.00     0.013 A 
HETATM    6  C   LIG     1      18.382  33.691  13.254  1.00  0.00     0.001 A 
HETATM    7  C   LIG     1      18.195  34.696  14.191  1.00  0.00     0.001 A 
HETATM    8  C   LIG     1      17.188  34.580  15.146  1.00  0.00     0.013 A 
HETATM    9  C   LIG     1      14.460  32.193  16.148  1.00  0.00    -0.019 C 
HETATM   10  C   LIG     1      13.384  32.070  17.063  1.00  0.00     0.013 C 
HETATM   11  C   LIG     1      12.565  30.944  17.064  1.00  0.00     0.001 C 
HETATM   12  C   LIG     1      12.790  29.919  16.157  1.00  0.00     0.001 C 
HETATM   13  C   LIG     1      13.795  30.041  15.203  1.00  0.00     0.013 C 
HETATM   14  C   LIG     1      14.610  31.198  15.139  1.00  0.00    -0.019 C 
HETATM   15  C   LIG     1      15.559  31.375  14.098  1.00  0.00    -0.040 C 
HETATM   16  C   LIG     1      15.566  30.438  12.898  1.00  0.00     0.050 C 
ENDROOT
TORSDOF 0
ENDMDL
MODEL 9
REMARK VINA RESULT:      -5.0     15.993     16.781
REMARK  0 active torsions:
REMARK  status: ('A' for Active; 'I' for Inactive)
ROOT
HETATM    1  C   LIG     1      27.093  23.643  23.068  1.00  0.00     0.050 C 
HETATM    2  C   LIG     1      26.267  23.188  21.872  1.00  0.00    -0.040 C 
HETATM    3  C   LIG     1      25.112  22.391  22.089  1.00  0.00    -0.019 A 
HETATM    4  C   LIG     1      24.212  22.125  21.018  1.00  0.00    -0.019 A 
HETATM    5  C   LIG     1      23.004  21.440  21.301  1.00  0.00     0.013 A 
HETATM    6  C   LIG     1      22.735  20.951  22.577  1.00  0.00     0.001 A 
HETATM    7  C   LIG     1      23.654  21.132  23.600  1.00  0.00     0.001 A 
HETATM    8  C   LIG     1      24.827  21.844  23.366  1.00  0.00     0.013 A 
HETATM    9  C   LIG     1      26.575  23.630  20.556  1.00  0.00    -0.019 C 
HETATM   10  C   LIG     1      27.787  24.303  20.262  1.00  0.00     0.013 C 
HETATM   11  C   LIG     1      28.035  24.823  18.994  1.00  0.00     0.001 C 
HETATM   12  C   LIG     1      27.090  24.683  17.989  1.00  0.00     0.001 C 
HETATM   13  C   LIG     1      25.919  23.969  18.227  1.00  0.00     0.013 C 
HETATM   14  C   LIG     1      25.663  23.380  19.490  1.00  0.00    -0.019 C 
HETATM   15  C   LIG     1      24.526  22.556  19.702  1.00  0.00    -0.040 C 
HETATM   16  C   LIG     1      23.679  22.098  18.522  1.00  0.00     0.050 C 
ENDROOT
TORSDOF 0
ENDMDL
MODEL 10
REMARK VINA RESULT:      -5.0     15.915     17.520
REMARK  0 active torsions:
REMARK  status: ('A' for Active; 'I' for Inactive)
ROOT
HETATM    1  C   LIG     1      27.399  23.084  19.831  1.00  0.00     0.050 C 
HETATM    2  C   LIG     1      26.169  22.389  19.264  1.00  0.00    -0.040 C 
HETATM    3  C   LIG     1      26.305  21.568  18.113  1.00  0.00    -0.019 A 
HETATM    4  C   LIG     1      25.223  20.747  17.685  1.00  0.00    -0.019 A 
HETATM    5  C   LIG     1      25.439  19.842  16.616  1.00  0.00     0.013 A 
HETATM    6  C   LIG     1      26.651  19.814  15.930  1.00  0.00     0.001 A 
HETATM    7  C   LIG     1      27.675  20.677  16.290  1.00  0.00     0.001 A 
HETATM    8  C   LIG     1      27.511  21.543  17.368  1.00  0.00     0.013 A 
HETATM    9  C   LIG     1      24.912  22.466  19.923  1.00  0.00    -0.019 C 
HETATM   10  C   LIG     1      24.683  23.379  20.984  1.00  0.00     0.013 C 
HETATM   11  C   LIG     1      23.483  23.377  21.690  1.00  0.00     0.001 C 
HETATM   12  C   LIG     1      22.482  22.477  21.359  1.00  0.00     0.001 C 
HETATM   13  C   LIG     1      22.649  21.615  20.279  1.00  0.00     0.013 C 
HETATM   14  C   LIG     1      23.836  21.631  19.505  1.00  0.00    -0.019 C 
HETATM   15  C   LIG     1      23.964  20.834  18.336  1.00  0.00    -0.040 C 
HETATM   16  C   LIG     1      22.750  20.120  17.756  1.00  0.00     0.050 C 
ENDROOT
TORSDOF 0
ENDMDL
MODEL 11
REMARK VINA RESULT:      -4.9     16.036     17.308
REMARK  0 active torsions:
REMARK  status: ('A' for Active; 'I' for Inactive)
ROOT
HETATM    1  C   LIG     1      23.100  20.715  27.637  1.00  0.00     0.050 C 
HETATM    2  C   LIG     1      23.843  21.250  26.420  1.00  0.00    -0.040 C 
HETATM    3  C   LIG     1      23.503  20.764  25.130  1.00  0.00    -0.019 A 
HETATM    4  C   LIG     1      24.030  21.389  23.964  1.00  0.00    -0.019 A 
HETATM    5  C   LIG     1      23.564  20.963  22.695  1.00  0.00     0.013 A 
HETATM    6  C   LIG     1      22.679  19.895  22.575  1.00  0.00     0.001 A 
HETATM    7  C   LIG     1      22.234  19.228  23.706  1.00  0.00     0.001 A 
HETATM    8  C   LIG     1      22.635  19.653  24.969  1.00  0.00     0.013 A 
HETATM    9  C   LIG     1      24.797  22.297  26.543  1.00  0.00    -0.019 C 
HETATM   10  C   LIG     1      25.279  22.719  27.807  1.00  0.00     0.013 C 
HETATM   11  C   LIG     1      26.135  23.811  27.925  1.00  0.00     0.001 C 
HETATM   12  C   LIG     1      26.535  24.506  26.794  1.00  0.00     0.001 C 
HETATM   13  C   LIG     1      26.134  24.076  25.533  1.00  0.00     0.013 C 
HETATM   14  C   LIG     1      25.310  22.934  25.376  1.00  0.00    -0.019 C 
HETATM   15  C   LIG     1      24.993  22.426  24.088  1.00  0.00    -0.040 C 
HETATM   16  C   LIG     1      25.715  22.953  22.855  1.00  0.00     0.050 C 
ENDROOT
TORSDOF 0
ENDMDL
MODEL 12
REMARK VINA RESULT:      -4.9     16.092     17.085
REMARK  0 active torsions:
REMARK  status: ('A' for Active; 'I' for Inactive)
ROOT
HETATM    1  C   LIG     1      26.165  23.104  22.778  1.00  0.00     0.050 C 
HETATM    2  C   LIG     1      25.307  22.635  23.945  1.00  0.00    -0.040 C 
HETATM    3  C   LIG     1      24.316  21.642  23.724  1.00  0.00    -0.019 A 
HETATM    4  C   LIG     1      23.644  21.039  24.825  1.00  0.00    -0.019 A 
HETATM    5  C   LIG     1      22.762  19.959  24.574  1.00  0.00     0.013 A 
HETATM    6  C   LIG     1      22.478  19.549  23.274  1.00  0.00     0.001 A 
HETATM    7  C   LIG     1      23.065  20.195  22.196  1.00  0.00     0.001 A 
HETATM    8  C   LIG     1      23.974  21.227  22.411  1.00  0.00     0.013 A 
HETATM    9  C   LIG     1      25.547  23.099  25.268  1.00  0.00    -0.019 C 
HETATM   10  C   LIG     1      26.417  24.188  25.527  1.00  0.00     0.013 C 
HETATM   11  C   LIG     1      26.726  24.570  26.829  1.00  0.00     0.001 C 
HETATM   12  C   LIG     1      26.176  23.887  27.904  1.00  0.00     0.001 C 
HETATM   13  C   LIG     1      25.266  22.858  27.683  1.00  0.00     0.013 C 
HETATM   14  C   LIG     1      24.888  22.483  26.370  1.00  0.00    -0.019 C 
HETATM   15  C   LIG     1      23.876  21.512  26.144  1.00  0.00    -0.040 C 
HETATM   16  C   LIG     1      23.012  21.020  27.298  1.00  0.00     0.050 C 
ENDROOT
TORSDOF 0
ENDMDL
MODEL 13
REMARK VINA RESULT:      -4.9     15.579     16.704
REMARK  0 active torsions:
REMARK  status: ('A' for Active; 'I' for Inactive)
ROOT
HETATM    1  C   LIG     1      25.155  21.327  23.029  1.00  0.00     0.050 C 
HETATM    2  C   LIG     1      25.358  22.252  21.837  1.00  0.00    -0.040 C 
HETATM    3  C   LIG     1      26.350  23.266  21.906  1.00  0.00    -0.019 A 
HETATM    4  C   LIG     1      26.702  24.007  20.742  1.00  0.00    -0.019 A 
HETATM    5  C   LIG     1      27.787  24.915  20.818  1.00  0.00     0.013 A 
HETATM    6  C   LIG     1      28.442  25.155  22.024  1.00  0.00     0.001 A 
HETATM    7  C   LIG     1      28.040  24.500  23.178  1.00  0.00     0.001 A 
HETATM    8  C   LIG     1      27.010  23.565  23.126  1.00  0.00     0.013 A 
HETATM    9  C   LIG     1      24.645  22.054  20.623  1.00  0.00    -0.019 C 
HETATM   10  C   LIG     1      23.549  21.158  20.542  1.00  0.00     0.013 C 
HETATM   11  C   LIG     1      22.922  20.894  19.328  1.00  0.00     0.001 C 
HETATM   12  C   LIG     1      23.362  21.514  18.168  1.00  0.00     0.001 C 
HETATM   13  C   LIG     1      24.390  22.450  18.225  1.00  0.00     0.013 C 
HETATM   14  C   LIG     1      25.011  22.783  19.454  1.00  0.00    -0.019 C 
HETATM   15  C   LIG     1      25.981  23.818  19.534  1.00  0.00    -0.040 C 
HETATM   16  C   LIG     1      26.209  24.749  18.350  1.00  0.00     0.050 C 
ENDROOT
TORSDOF 0
ENDMDL
MODEL 14
REMARK VINA RESULT:      -4.9     16.070     18.284
REMARK  0 active torsions:
REMARK  status: ('A' for Active; 'I' for Inactive)
ROOT
HETATM    1  C   LIG     1      22.769  18.299  22.215  1.00  0.00     0.050 C 
HETATM    2  C   LIG     1      23.023  19.419  21.215  1.00  0.00    -0.040 C 
HETATM    3  C   LIG     1      23.653  20.613  21.654  1.00  0.00    -0.019 A 
HETATM    4  C   LIG     1      24.087  21.586  20.709  1.00  0.00    -0.019 A 
HETATM    5  C   LIG     1      24.830  22.700  21.173  1.00  0.00     0.013 A 
HETATM    6  C   LIG     1      25.057  22.897  22.533  1.00  0.00     0.001 A 
HETATM    7  C   LIG     1      24.557  21.996  23.461  1.00  0.00     0.001 A 
HETATM    8  C   LIG     1      23.866  20.866  23.033  1.00  0.00     0.013 A 
HETATM    9  C   LIG     1      22.733  19.249  19.833  1.00  0.00    -0.019 C 
HETATM   10  C   LIG     1      21.978  18.146  19.362  1.00  0.00     0.013 C 
HETATM   11  C   LIG     1      21.785  17.933  17.999  1.00  0.00     0.001 C 
HETATM   12  C   LIG     1      22.331  18.810  17.074  1.00  0.00     0.001 C 
HETATM   13  C   LIG     1      23.019  19.939  17.507  1.00  0.00     0.013 C 
HETATM   14  C   LIG     1      23.184  20.215  18.887  1.00  0.00    -0.019 C 
HETATM   15  C   LIG     1      23.786  21.422  19.331  1.00  0.00    -0.040 C 
HETATM   16  C   LIG     1      24.059  22.551  18.346  1.00  0.00     0.050 C 
ENDROOT
TORSDOF 0
ENDMDL
MODEL 15
REMARK VINA RESULT:      -4.8     15.543     16.673
REMARK  0 active torsions:
REMARK  status: ('A' for Active; 'I' for Inactive)
ROOT
HETATM    1  C   LIG     1      26.088  24.742  18.260  1.00  0.00     0.050 C 
HETATM    2  C   LIG     1      25.943  23.783  19.434  1.00  0.00    -0.040 C 
HETATM    3  C   LIG     1      26.706  24.005  20.611  1.00  0.00    -0.019 A 
HETATM    4  C   LIG     1      26.442  23.252  21.791  1.00  0.00    -0.019 A 
HETATM    5  C   LIG     1      27.131  23.593  22.981  1.00  0.00     0.013 A 
HETATM    6  C   LIG     1      28.114  24.579  22.988  1.00  0.00     0.001 A 
HETATM    7  C   LIG     1      28.434  25.251  21.817  1.00  0.00     0.001 A 
HETATM    8  C   LIG     1      27.741  24.974  20.642  1.00  0.00     0.013 A 
HETATM    9  C   LIG     1      24.986  22.731  19.410  1.00  0.00    -0.019 C 
HETATM   10  C   LIG     1      24.303  22.374  18.219  1.00  0.00     0.013 C 
HETATM   11  C   LIG     1      23.295  21.414  18.226  1.00  0.00     0.001 C 
HETATM   12  C   LIG     1      22.945  20.782  19.410  1.00  0.00     0.001 C 
HETATM   13  C   LIG     1      23.642  21.061  20.582  1.00  0.00     0.013 C 
HETATM   14  C   LIG     1      24.710  21.991  20.596  1.00  0.00    -0.019 C 
HETATM   15  C   LIG     1      25.495  22.194  21.762  1.00  0.00    -0.040 C 
HETATM   16  C   LIG     1      25.360  21.253  22.952  1.00  0.00     0.050 C 
ENDROOT
TORSDOF 0
ENDMDL
MODEL 16
REMARK VINA RESULT:      -4.8     15.849     17.437
REMARK  0 active torsions:
REMARK  status: ('A' for Active; 'I' for Inactive)
ROOT
HETATM    1  C   LIG     1      28.846  27.874  18.117  1.00  0.00     0.050 C 
HETATM    2  C   LIG     1      28.818  26.390  17.773  1.00  0.00    -0.040 C 
HETATM    3  C   LIG     1      28.367  25.460  18.747  1.00  0.00    -0.019 A 
HETATM    4  C   LIG     1      28.135  24.101  18.389  1.00  0.00    -0.019 A 
HETATM    5  C   LIG     1      27.558  23.235  19.350  1.00  0.00     0.013 A 
HETATM    6  C   LIG     1      27.305  23.668  20.649  1.00  0.00     0.001 A 
HETATM    7  C   LIG     1      27.613  24.967  21.023  1.00  0.00     0.001 A 
HETATM    8  C   LIG     1      28.135  25.857  20.088  1.00  0.00     0.013 A 
HETATM    9  C   LIG     1      29.139  25.933  16.465  1.00  0.00    -0.019 C 
HETATM   10  C   LIG     1      29.730  26.789  15.502  1.00  0.00     0.013 C 
HETATM   11  C   LIG     1      29.947  26.363  14.195  1.00  0.00     0.001 C 
HETATM   12  C   LIG     1      29.589  25.078  13.813  1.00  0.00     0.001 C 
HETATM   13  C   LIG     1      29.070  24.192  14.752  1.00  0.00     0.013 C 
HETATM   14  C   LIG     1      28.890  24.577  16.104  1.00  0.00    -0.019 C 
HETATM   15  C   LIG     1      28.468  23.642  17.087  1.00  0.00    -0.040 C 
HETATM   16  C   LIG     1      28.422  22.155  16.763  1.00  0.00     0.050 C 
ENDROOT
TORSDOF 0
ENDMDL
MODEL 17
REMARK VINA RESULT:      -4.8     15.702     17.225
REMARK  0 active torsions:
REMARK  status: ('A' for Active; 'I' for Inactive)
ROOT
HETATM    1  C   LIG     1      24.832  22.731  23.515  1.00  0.00     0.050 C 
HETATM    2  C   LIG     1      24.260  21.900  22.375  1.00  0.00    -0.040 C 
HETATM    3  C   LIG     1      24.564  22.259  21.034  1.00  0.00    -0.019 A 
HETATM    4  C   LIG     1      24.217  21.388  19.962  1.00  0.00    -0.019 A 
HETATM    5  C   LIG     1      24.655  21.714  18.654  1.00  0.00     0.013 A 
HETATM    6  C   LIG     1      25.330  22.904  18.397  1.00  0.00     0.001 A 
HETATM    7  C   LIG     1      25.589  23.795  19.427  1.00  0.00     0.001 A 
HETATM    8  C   LIG     1      25.216  23.481  20.731  1.00  0.00     0.013 A 
HETATM    9  C   LIG     1      23.513  20.718  22.630  1.00  0.00    -0.019 C 
HETATM   10  C   LIG     1      23.059  20.392  23.933  1.00  0.00     0.013 C 
HETATM   11  C   LIG     1      22.418  19.183  24.192  1.00  0.00     0.001 C 
HETATM   12  C   LIG     1      22.207  18.274  23.166  1.00  0.00     0.001 C 
HETATM   13  C   LIG     1      22.579  18.594  21.864  1.00  0.00     0.013 C 
HETATM   14  C   LIG     1      23.183  19.838  21.558  1.00  0.00    -0.019 C 
HETATM   15  C   LIG     1      23.460  20.213  20.216  1.00  0.00    -0.040 C 
HETATM   16  C   LIG     1      22.908  19.392  19.059  1.00  0.00     0.050 C 
ENDROOT
TORSDOF 0
ENDMDL
MODEL 18
REMARK VINA RESULT:      -4.8     17.329     19.813
REMARK  0 active torsions:
REMARK  status: ('A' for Active; 'I' for Inactive)
ROOT
HETATM    1  C   LIG     1      19.109  23.549  32.355  1.00  0.00     0.050 C 
HETATM    2  C   LIG     1      19.861  22.310  32.823  1.00  0.00    -0.040 C 
HETATM    3  C   LIG     1      19.998  21.206  31.940  1.00  0.00    -0.019 A 
HETATM    4  C   LIG     1      20.865  20.126  32.271  1.00  0.00    -0.019 A 
HETATM    5  C   LIG     1      21.080  19.109  31.308  1.00  0.00     0.013 A 
HETATM    6  C   LIG     1      20.393  19.107  30.097  1.00  0.00     0.001 A 
HETATM    7  C   LIG     1      19.481  20.113  29.812  1.00  0.00     0.001 A 
HETATM    8  C   LIG     1      19.284  21.152  30.716  1.00  0.00     0.013 A 
HETATM    9  C   LIG     1      20.511  22.279  34.088  1.00  0.00    -0.019 C 
HETATM   10  C   LIG     1      20.290  23.285  35.062  1.00  0.00     0.013 C 
HETATM   11  C   LIG     1      21.008  23.302  36.256  1.00  0.00     0.001 C 
HETATM   12  C   LIG     1      21.954  22.322  36.513  1.00  0.00     0.001 C 
HETATM   13  C   LIG     1      22.146  21.283  35.607  1.00  0.00     0.013 C 
HETATM   14  C   LIG     1      21.392  21.206  34.409  1.00  0.00    -0.019 C 
HETATM   15  C   LIG     1      21.504  20.089  33.539  1.00  0.00    -0.040 C 
HETATM   16  C   LIG     1      22.260  18.843  33.981  1.00  0.00     0.050 C 
ENDROOT
TORSDOF 0
ENDMDL
MODEL 19
REMARK VINA RESULT:      -4.8     16.014     17.980
REMARK  0 active torsions:
REMARK  status: ('A' for Active; 'I' for Inactive)
ROOT
HETATM    1  C   LIG     1      22.606  22.209  20.194  1.00  0.00     0.050 C 
HETATM    2  C   LIG     1      23.805  21.756  19.371  1.00  0.00    -0.040 C 
HETATM    3  C   LIG     1      23.692  20.594  18.562  1.00  0.00    -0.019 A 
HETATM    4  C   LIG     1      24.718  20.265  17.631  1.00  0.00    -0.019 A 
HETATM    5  C   LIG     1      24.509  19.176  16.748  1.00  0.00     0.013 A 
HETATM    6  C   LIG     1      23.370  18.381  16.842  1.00  0.00     0.001 A 
HETATM    7  C   LIG     1      22.412  18.648  17.808  1.00  0.00     0.001 A 
HETATM    8  C   LIG     1      22.564  19.739  18.658  1.00  0.00     0.013 A 
HETATM    9  C   LIG     1      24.997  22.529  19.322  1.00  0.00    -0.019 C 
HETATM   10  C   LIG     1      25.220  23.610  20.211  1.00  0.00     0.013 C 
HETATM   11  C   LIG     1      26.342  24.425  20.089  1.00  0.00     0.001 C 
HETATM   12  C   LIG     1      27.271  24.184  19.088  1.00  0.00     0.001 C 
HETATM   13  C   LIG     1      27.116  23.090  18.243  1.00  0.00     0.013 C 
HETATM   14  C   LIG     1      26.015  22.209  18.377  1.00  0.00    -0.019 C 
HETATM   15  C   LIG     1      25.914  21.030  17.591  1.00  0.00    -0.040 C 
HETATM   16  C   LIG     1      27.096  20.562  16.752  1.00  0.00     0.050 C 
ENDROOT
TORSDOF 0
ENDMDL
MODEL 20
REMARK VINA RESULT:      -4.8     16.240     16.539
REMARK  0 active torsions:
REMARK  status: ('A' for Active; 'I' for Inactive)
ROOT
HETATM    1  C   LIG     1      27.254  23.818  21.035  1.00  0.00     0.050 C 
HETATM    2  C   LIG     1      25.992  23.087  21.475  1.00  0.00    -0.040 C 
HETATM    3  C   LIG     1      25.094  22.599  20.489  1.00  0.00    -0.019 A 
HETATM    4  C   LIG     1      24.020  21.739  20.859  1.00  0.00    -0.019 A 
HETATM    5  C   LIG     1      23.227  21.165  19.834  1.00  0.00     0.013 A 
HETATM    6  C   LIG     1      23.425  21.500  18.497  1.00  0.00     0.001 A 
HETATM    7  C   LIG     1      24.413  22.407  18.145  1.00  0.00     0.001 A 
HETATM    8  C   LIG     1      25.241  22.951  19.123  1.00  0.00     0.013 A 
HETATM    9  C   LIG     1      25.750  22.798  22.846  1.00  0.00    -0.019 C 
HETATM   10  C   LIG     1      26.530  23.380  23.877  1.00  0.00     0.013 C 
HETATM   11  C   LIG     1      26.353  23.013  25.209  1.00  0.00     0.001 C 
HETATM   12  C   LIG     1      25.397  22.067  25.549  1.00  0.00     0.001 C 
HETATM   13  C   LIG     1      24.570  21.528  24.568  1.00  0.00     0.013 C 
HETATM   14  C   LIG     1      24.687  21.922  23.212  1.00  0.00    -0.019 C 
HETATM   15  C   LIG     1      23.772  21.461  22.229  1.00  0.00    -0.040 C 
HETATM   16  C   LIG     1      22.508  20.718  22.644  1.00  0.00     0.050 C 
ENDROOT
TORSDOF 0
ENDMDL
