REMARK  0 active torsions:
REMARK  status: ('A' for Active; 'I' for Inactive)
ROOT
HETATM    1  C   LIG     1      -0.580   2.857  -0.426  1.00  0.00     0.050 C 
HETATM    2  C   LIG     1      -0.274   1.397  -0.120  1.00  0.00    -0.040 C 
HETATM    3  C   LIG     1      -1.335   0.453  -0.107  1.00  0.00    -0.019 A 
HETATM    4  C   LIG     1      -1.055  -0.941  -0.029  1.00  0.00    -0.019 A 
HETATM    5  C   LIG     1      -2.129  -1.857  -0.154  1.00  0.00     0.013 A 
HETATM    6  C   LIG     1      -3.445  -1.414  -0.258  1.00  0.00     0.001 A 
HETATM    7  C   LIG     1      -3.726  -0.056  -0.244  1.00  0.00     0.001 A 
HETATM    8  C   LIG     1      -2.689   0.870  -0.172  1.00  0.00     0.013 A 
HETATM    9  C   LIG     1       1.064   0.947   0.053  1.00  0.00    -0.019 C 
HETATM   10  C   LIG     1       2.142   1.857   0.193  1.00  0.00     0.013 C 
HETATM   11  C   LIG     1       3.459   1.410   0.259  1.00  0.00     0.001 C 
HETATM   12  C   LIG     1       3.737   0.053   0.193  1.00  0.00     0.001 C 
HETATM   13  C   LIG     1       2.697  -0.869   0.124  1.00  0.00     0.013 C 
HETATM   14  C   LIG     1       1.344  -0.449   0.112  1.00  0.00    -0.019 C 
HETATM   15  C   LIG     1       0.280  -1.389   0.156  1.00  0.00    -0.040 C 
HETATM   16  C   LIG     1       0.563  -2.856   0.450  1.00  0.00     0.050 C 
ENDROOT
TORSDOF 0
