REMARK  3 active torsions:
REMARK  status: ('A' for Active; 'I' for Inactive)
REMARK    1  A    between atoms: C_2  and  C_5 
REMARK    2  A    between atoms: C_5  and  C_6 
REMARK    3  A    between atoms: C_5  and  C_13 
ROOT
HETATM    1  C   LIG     1       0.079   1.026  -0.416  1.00  0.00     0.107 C 
ENDROOT
BRANCH   1   2
HETATM    2  C   LIG     1       0.036   2.463   0.239  1.00  0.00     0.200 C 
HETATM    3 CL   LIG     1       0.790   2.536   1.861  1.00  0.00    -0.083 Cl
HETATM    4 CL   LIG     1      -1.622   3.126   0.382  1.00  0.00    -0.083 Cl
HETATM    5 CL   LIG     1       0.918   3.640  -0.780  1.00  0.00    -0.083 Cl
ENDBRANCH   1   2
BRANCH   1   6
HETATM    6  C   LIG     1       1.282   0.165   0.002  1.00  0.00    -0.045 A 
HETATM    7  C   LIG     1       2.588   0.669  -0.185  1.00  0.00     0.010 A 
HETATM    8  C   LIG     1       3.710  -0.087   0.166  1.00  0.00     0.024 A 
HETATM    9  C   LIG     1       3.555  -1.371   0.688  1.00  0.00     0.034 A 
HETATM   10  C   LIG     1       2.276  -1.905   0.845  1.00  0.00     0.024 A 
HETATM   11 CL   LIG     1       4.965  -2.319   1.125  1.00  0.00    -0.084 Cl
HETATM   12  C   LIG     1       1.150  -1.154   0.496  1.00  0.00     0.010 A 
ENDBRANCH   1   6
BRANCH   1  13
HETATM   13  C   LIG     1      -1.268   0.280  -0.386  1.00  0.00    -0.024 A 
HETATM   14  C   LIG     1      -1.888  -0.028  -1.617  1.00  0.00     0.010 A 
HETATM   15  C   LIG     1      -3.121  -0.681  -1.659  1.00  0.00     0.001 A 
HETATM   16  C   LIG     1      -3.762  -1.043  -0.477  1.00  0.00     0.002 A 
HETATM   17  C   LIG     1      -3.170  -0.757   0.751  1.00  0.00     0.024 A 
HETATM   18  C   LIG     1      -1.933  -0.103   0.813  1.00  0.00     0.041 A 
HETATM   19 CL   LIG     1      -1.258   0.158   2.415  1.00  0.00    -0.084 Cl
ENDBRANCH   1  13
TORSDOF 3
