MODEL 1
REMARK VINA RESULT:      -4.1      0.000      0.000
REMARK  1 active torsions:
REMARK  status: ('A' for Active; 'I' for Inactive)
REMARK    1  A    between atoms: C_2  and  C_3 
REMARK       I    between atoms: C_3  and  N_4 
ROOT
HETATM    1  C   LIG     1      17.549  37.153  25.397  1.00  0.00     0.238 C 
HETATM    2  N   LIG     1      17.295  38.531  25.684  1.00  0.00    -0.367 N 
HETATM    3  O   LIG     1      17.128  36.667  24.314  1.00  0.00    -0.269 OA
HETATM    4  H   LIG     1      16.715  39.098  25.027  1.00  0.00     0.159 HD
HETATM    5  H   LIG     1      17.730  39.021  26.497  1.00  0.00     0.159 HD
ENDROOT
BRANCH   1   6
HETATM    6  C   LIG     1      18.307  36.278  26.314  1.00  0.00     0.064 C 
HETATM    7  C   LIG     1      18.230  34.947  26.305  1.00  0.00     0.017 C 
ENDBRANCH   1   6
TORSDOF 1
ENDMDL
MODEL 2
REMARK VINA RESULT:      -3.8      5.958      6.273
REMARK  1 active torsions:
REMARK  status: ('A' for Active; 'I' for Inactive)
REMARK    1  A    between atoms: C_2  and  C_3 
REMARK       I    between atoms: C_3  and  N_4 
ROOT
HETATM    1  C   LIG     1      19.658  38.827  19.938  1.00  0.00     0.238 C 
HETATM    2  N   LIG     1      19.148  39.443  21.125  1.00  0.00    -0.367 N 
HETATM    3  O   LIG     1      20.505  39.449  19.244  1.00  0.00    -0.269 OA
HETATM    4  H   LIG     1      19.435  40.417  21.367  1.00  0.00     0.159 HD
HETATM    5  H   LIG     1      18.550  38.928  21.807  1.00  0.00     0.159 HD
ENDROOT
BRANCH   1   6
HETATM    6  C   LIG     1      19.243  37.478  19.503  1.00  0.00     0.064 C 
HETATM    7  C   LIG     1      18.351  36.730  20.151  1.00  0.00     0.017 C 
ENDBRANCH   1   6
TORSDOF 1
ENDMDL
MODEL 3
REMARK VINA RESULT:      -3.6      2.629      3.566
REMARK  1 active torsions:
REMARK  status: ('A' for Active; 'I' for Inactive)
REMARK    1  A    between atoms: C_2  and  C_3 
REMARK       I    between atoms: C_3  and  N_4 
ROOT
HETATM    1  C   LIG     1      17.247  38.105  23.932  1.00  0.00     0.238 C 
HETATM    2  N   LIG     1      18.284  38.091  24.919  1.00  0.00    -0.367 N 
HETATM    3  O   LIG     1      16.049  38.006  24.305  1.00  0.00    -0.269 OA
HETATM    4  H   LIG     1      18.040  37.939  25.923  1.00  0.00     0.159 HD
HETATM    5  H   LIG     1      19.279  38.302  24.685  1.00  0.00     0.159 HD
ENDROOT
BRANCH   1   6
HETATM    6  C   LIG     1      17.528  38.250  22.489  1.00  0.00     0.064 C 
HETATM    7  C   LIG     1      18.344  39.173  21.980  1.00  0.00     0.017 C 
ENDBRANCH   1   6
TORSDOF 1
ENDMDL
MODEL 4
REMARK VINA RESULT:      -3.6      2.860      3.047
REMARK  1 active torsions:
REMARK  status: ('A' for Active; 'I' for Inactive)
REMARK    1  A    between atoms: C_2  and  C_3 
REMARK       I    between atoms: C_3  and  N_4 
ROOT
HETATM    1  C   LIG     1      16.320  37.557  23.787  1.00  0.00     0.238 C 
HETATM    2  N   LIG     1      15.242  38.101  23.019  1.00  0.00    -0.367 N 
HETATM    3  O   LIG     1      16.594  38.073  24.903  1.00  0.00    -0.269 OA
HETATM    4  H   LIG     1      14.740  38.950  23.360  1.00  0.00     0.159 HD
HETATM    5  H   LIG     1      14.883  37.637  22.156  1.00  0.00     0.159 HD
ENDROOT
BRANCH   1   6
HETATM    6  C   LIG     1      17.113  36.398  23.332  1.00  0.00     0.064 C 
HETATM    7  C   LIG     1      16.686  35.513  22.432  1.00  0.00     0.017 C 
ENDBRANCH   1   6
TORSDOF 1
ENDMDL
MODEL 5
REMARK VINA RESULT:      -3.5      5.410      5.609
REMARK  1 active torsions:
REMARK  status: ('A' for Active; 'I' for Inactive)
REMARK    1  A    between atoms: C_2  and  C_3 
REMARK       I    between atoms: C_3  and  N_4 
ROOT
HETATM    1  C   LIG     1      15.522  34.248  20.801  1.00  0.00     0.238 C 
HETATM    2  N   LIG     1      14.278  34.033  21.475  1.00  0.00    -0.367 N 
HETATM    3  O   LIG     1      15.722  33.681  19.694  1.00  0.00    -0.269 OA
HETATM    4  H   LIG     1      13.582  33.364  21.076  1.00  0.00     0.159 HD
HETATM    5  H   LIG     1      14.001  34.576  22.322  1.00  0.00     0.159 HD
ENDROOT
BRANCH   1   6
HETATM    6  C   LIG     1      16.576  35.129  21.343  1.00  0.00     0.064 C 
HETATM    7  C   LIG     1      16.899  35.194  22.634  1.00  0.00     0.017 C 
ENDBRANCH   1   6
TORSDOF 1
ENDMDL
MODEL 6
REMARK VINA RESULT:      -3.5      5.803      6.326
REMARK  1 active torsions:
REMARK  status: ('A' for Active; 'I' for Inactive)
REMARK    1  A    between atoms: C_2  and  C_3 
REMARK       I    between atoms: C_3  and  N_4 
ROOT
HETATM    1  C   LIG     1      19.592  38.742  19.855  1.00  0.00     0.238 C 
HETATM    2  N   LIG     1      19.369  37.375  19.494  1.00  0.00    -0.367 N 
HETATM    3  O   LIG     1      20.508  39.384  19.276  1.00  0.00    -0.269 OA
HETATM    4  H   LIG     1      20.002  36.911  18.806  1.00  0.00     0.159 HD
HETATM    5  H   LIG     1      18.545  36.835  19.839  1.00  0.00     0.159 HD
ENDROOT
BRANCH   1   6
HETATM    6  C   LIG     1      18.775  39.438  20.869  1.00  0.00     0.064 C 
HETATM    7  C   LIG     1      18.147  38.820  21.870  1.00  0.00     0.017 C 
ENDBRANCH   1   6
TORSDOF 1
ENDMDL
MODEL 7
REMARK VINA RESULT:      -3.5      8.895      9.006
REMARK  1 active torsions:
REMARK  status: ('A' for Active; 'I' for Inactive)
REMARK    1  A    between atoms: C_2  and  C_3 
REMARK       I    between atoms: C_3  and  N_4 
ROOT
HETATM    1  C   LIG     1      14.858  32.358  18.109  1.00  0.00     0.238 C 
HETATM    2  N   LIG     1      13.537  32.041  17.661  1.00  0.00    -0.367 N 
HETATM    3  O   LIG     1      15.665  32.891  17.302  1.00  0.00    -0.269 OA
HETATM    4  H   LIG     1      13.278  32.196  16.662  1.00  0.00     0.159 HD
HETATM    5  H   LIG     1      12.787  31.725  18.315  1.00  0.00     0.159 HD
ENDROOT
BRANCH   1   6
HETATM    6  C   LIG     1      15.309  32.104  19.493  1.00  0.00     0.064 C 
HETATM    7  C   LIG     1      14.906  31.067  20.227  1.00  0.00     0.017 C 
ENDBRANCH   1   6
TORSDOF 1
ENDMDL
MODEL 8
REMARK VINA RESULT:      -3.4      2.313      2.780
REMARK  1 active torsions:
REMARK  status: ('A' for Active; 'I' for Inactive)
REMARK    1  A    between atoms: C_2  and  C_3 
REMARK       I    between atoms: C_3  and  N_4 
ROOT
HETATM    1  C   LIG     1      17.980  35.412  25.816  1.00  0.00     0.238 C 
HETATM    2  N   LIG     1      17.240  34.933  24.689  1.00  0.00    -0.367 N 
HETATM    3  O   LIG     1      18.624  34.588  26.518  1.00  0.00    -0.269 OA
HETATM    4  H   LIG     1      17.193  33.907  24.499  1.00  0.00     0.159 HD
HETATM    5  H   LIG     1      16.800  35.577  23.996  1.00  0.00     0.159 HD
ENDROOT
BRANCH   1   6
HETATM    6  C   LIG     1      18.035  36.843  26.178  1.00  0.00     0.064 C 
HETATM    7  C   LIG     1      17.408  37.805  25.502  1.00  0.00     0.017 C 
ENDBRANCH   1   6
TORSDOF 1
ENDMDL
MODEL 9
REMARK VINA RESULT:      -3.4      7.277      7.611
REMARK  1 active torsions:
REMARK  status: ('A' for Active; 'I' for Inactive)
REMARK    1  A    between atoms: C_2  and  C_3 
REMARK       I    between atoms: C_3  and  N_4 
ROOT
HETATM    1  C   LIG     1      12.918  31.662  27.511  1.00  0.00     0.238 C 
HETATM    2  N   LIG     1      13.736  31.480  28.670  1.00  0.00    -0.367 N 
HETATM    3  O   LIG     1      12.475  32.812  27.251  1.00  0.00    -0.269 OA
HETATM    4  H   LIG     1      13.905  32.283  29.316  1.00  0.00     0.159 HD
HETATM    5  H   LIG     1      14.239  30.586  28.863  1.00  0.00     0.159 HD
ENDROOT
BRANCH   1   6
HETATM    6  C   LIG     1      12.587  30.554  26.592  1.00  0.00     0.064 C 
HETATM    7  C   LIG     1      12.553  30.675  25.265  1.00  0.00     0.017 C 
ENDBRANCH   1   6
TORSDOF 1
ENDMDL
MODEL 10
REMARK VINA RESULT:      -3.3     10.928     11.060
REMARK  1 active torsions:
REMARK  status: ('A' for Active; 'I' for Inactive)
REMARK    1  A    between atoms: C_2  and  C_3 
REMARK       I    between atoms: C_3  and  N_4 
ROOT
HETATM    1  C   LIG     1      13.830  31.784  17.294  1.00  0.00     0.238 C 
HETATM    2  N   LIG     1      14.061  33.180  17.077  1.00  0.00    -0.367 N 
HETATM    3  O   LIG     1      14.108  31.287  18.417  1.00  0.00    -0.269 OA
HETATM    4  H   LIG     1      14.512  33.752  17.826  1.00  0.00     0.159 HD
HETATM    5  H   LIG     1      13.729  33.674  16.220  1.00  0.00     0.159 HD
ENDROOT
BRANCH   1   6
HETATM    6  C   LIG     1      13.257  30.905  16.255  1.00  0.00     0.064 C 
HETATM    7  C   LIG     1      13.944  30.442  15.211  1.00  0.00     0.017 C 
ENDBRANCH   1   6
TORSDOF 1
ENDMDL
MODEL 11
REMARK VINA RESULT:      -3.3      7.048      7.182
REMARK  1 active torsions:
REMARK  status: ('A' for Active; 'I' for Inactive)
REMARK    1  A    between atoms: C_2  and  C_3 
REMARK       I    between atoms: C_3  and  N_4 
ROOT
HETATM    1  C   LIG     1      15.381  33.645  20.091  1.00  0.00     0.238 C 
HETATM    2  N   LIG     1      15.618  34.732  19.191  1.00  0.00    -0.367 N 
HETATM    3  O   LIG     1      14.941  33.892  21.245  1.00  0.00    -0.269 OA
HETATM    4  H   LIG     1      15.483  35.714  19.519  1.00  0.00     0.159 HD
HETATM    5  H   LIG     1      15.852  34.583  18.185  1.00  0.00     0.159 HD
ENDROOT
BRANCH   1   6
HETATM    6  C   LIG     1      15.614  32.237  19.711  1.00  0.00     0.064 C 
HETATM    7  C   LIG     1      14.821  31.228  20.075  1.00  0.00     0.017 C 
ENDBRANCH   1   6
TORSDOF 1
ENDMDL
MODEL 12
REMARK VINA RESULT:      -3.3     10.091     10.237
REMARK  1 active torsions:
REMARK  status: ('A' for Active; 'I' for Inactive)
REMARK    1  A    between atoms: C_2  and  C_3 
REMARK       I    between atoms: C_3  and  N_4 
ROOT
HETATM    1  C   LIG     1      14.615  32.189  17.834  1.00  0.00     0.238 C 
HETATM    2  N   LIG     1      14.118  31.732  19.095  1.00  0.00    -0.367 N 
HETATM    3  O   LIG     1      15.647  32.910  17.810  1.00  0.00    -0.269 OA
HETATM    4  H   LIG     1      14.575  32.050  19.978  1.00  0.00     0.159 HD
HETATM    5  H   LIG     1      13.352  31.027  19.170  1.00  0.00     0.159 HD
ENDROOT
BRANCH   1   6
HETATM    6  C   LIG     1      13.976  31.829  16.552  1.00  0.00     0.064 C 
HETATM    7  C   LIG     1      13.196  30.761  16.384  1.00  0.00     0.017 C 
ENDBRANCH   1   6
TORSDOF 1
ENDMDL
MODEL 13
REMARK VINA RESULT:      -3.2      3.562      3.653
REMARK  1 active torsions:
REMARK  status: ('A' for Active; 'I' for Inactive)
REMARK    1  A    between atoms: C_2  and  C_3 
REMARK       I    between atoms: C_3  and  N_4 
ROOT
HETATM    1  C   LIG     1      16.552  37.956  22.587  1.00  0.00     0.238 C 
HETATM    2  N   LIG     1      15.229  38.095  23.114  1.00  0.00    -0.367 N 
HETATM    3  O   LIG     1      17.360  38.914  22.709  1.00  0.00    -0.269 OA
HETATM    4  H   LIG     1      14.931  39.003  23.534  1.00  0.00     0.159 HD
HETATM    5  H   LIG     1      14.561  37.294  23.162  1.00  0.00     0.159 HD
ENDROOT
BRANCH   1   6
HETATM    6  C   LIG     1      17.015  36.722  21.921  1.00  0.00     0.064 C 
HETATM    7  C   LIG     1      16.849  35.499  22.424  1.00  0.00     0.017 C 
ENDBRANCH   1   6
TORSDOF 1
ENDMDL
MODEL 14
REMARK VINA RESULT:      -3.2     13.396     13.522
REMARK  1 active torsions:
REMARK  status: ('A' for Active; 'I' for Inactive)
REMARK    1  A    between atoms: C_2  and  C_3 
REMARK       I    between atoms: C_3  and  N_4 
ROOT
HETATM    1  C   LIG     1      14.569  29.803  14.258  1.00  0.00     0.238 C 
HETATM    2  N   LIG     1      13.682  28.774  13.811  1.00  0.00    -0.367 N 
HETATM    3  O   LIG     1      15.672  29.956  13.670  1.00  0.00    -0.269 OA
HETATM    4  H   LIG     1      13.982  28.126  13.050  1.00  0.00     0.159 HD
HETATM    5  H   LIG     1      12.705  28.686  14.168  1.00  0.00     0.159 HD
ENDROOT
BRANCH   1   6
HETATM    6  C   LIG     1      14.233  30.712  15.373  1.00  0.00     0.064 C 
HETATM    7  C   LIG     1      13.073  30.684  16.030  1.00  0.00     0.017 C 
ENDBRANCH   1   6
TORSDOF 1
ENDMDL
MODEL 15
REMARK VINA RESULT:      -3.2     13.713     13.853
REMARK  1 active torsions:
REMARK  status: ('A' for Active; 'I' for Inactive)
REMARK    1  A    between atoms: C_2  and  C_3 
REMARK       I    between atoms: C_3  and  N_4 
ROOT
HETATM    1  C   LIG     1      13.448  29.645  14.458  1.00  0.00     0.238 C 
HETATM    2  N   LIG     1      12.646  28.590  13.916  1.00  0.00    -0.367 N 
HETATM    3  O   LIG     1      12.959  30.385  15.351  1.00  0.00    -0.269 OA
HETATM    4  H   LIG     1      11.653  28.486  14.221  1.00  0.00     0.159 HD
HETATM    5  H   LIG     1      13.037  27.866  13.275  1.00  0.00     0.159 HD
ENDROOT
BRANCH   1   6
HETATM    6  C   LIG     1      14.838  29.888  14.022  1.00  0.00     0.064 C 
HETATM    7  C   LIG     1      15.526  30.991  14.317  1.00  0.00     0.017 C 
ENDBRANCH   1   6
TORSDOF 1
ENDMDL
MODEL 16
REMARK VINA RESULT:      -3.1      7.051      7.680
REMARK  1 active torsions:
REMARK  status: ('A' for Active; 'I' for Inactive)
REMARK    1  A    between atoms: C_2  and  C_3 
REMARK       I    between atoms: C_3  and  N_4 
ROOT
HETATM    1  C   LIG     1      19.648  39.050  19.401  1.00  0.00     0.238 C 
HETATM    2  N   LIG     1      19.118  39.755  20.527  1.00  0.00    -0.367 N 
HETATM    3  O   LIG     1      20.841  38.648  19.438  1.00  0.00    -0.269 OA
HETATM    4  H   LIG     1      19.739  39.981  21.336  1.00  0.00     0.159 HD
HETATM    5  H   LIG     1      18.106  39.994  20.609  1.00  0.00     0.159 HD
ENDROOT
BRANCH   1   6
HETATM    6  C   LIG     1      18.843  38.756  18.198  1.00  0.00     0.064 C 
HETATM    7  C   LIG     1      18.792  39.546  17.126  1.00  0.00     0.017 C 
ENDBRANCH   1   6
TORSDOF 1
ENDMDL
MODEL 17
REMARK VINA RESULT:      -3.0      7.503      7.694
REMARK  1 active torsions:
REMARK  status: ('A' for Active; 'I' for Inactive)
REMARK    1  A    between atoms: C_2  and  C_3 
REMARK       I    between atoms: C_3  and  N_4 
ROOT
HETATM    1  C   LIG     1      15.310  32.305  19.678  1.00  0.00     0.238 C 
HETATM    2  N   LIG     1      14.171  31.971  18.879  1.00  0.00    -0.367 N 
HETATM    3  O   LIG     1      16.130  31.398  19.981  1.00  0.00    -0.269 OA
HETATM    4  H   LIG     1      14.000  30.976  18.611  1.00  0.00     0.159 HD
HETATM    5  H   LIG     1      13.533  32.697  18.486  1.00  0.00     0.159 HD
ENDROOT
BRANCH   1   6
HETATM    6  C   LIG     1      15.575  33.681  20.145  1.00  0.00     0.064 C 
HETATM    7  C   LIG     1      15.075  34.192  21.270  1.00  0.00     0.017 C 
ENDBRANCH   1   6
TORSDOF 1
ENDMDL
MODEL 18
REMARK VINA RESULT:      -3.0     12.149     12.270
REMARK  1 active torsions:
REMARK  status: ('A' for Active; 'I' for Inactive)
REMARK    1  A    between atoms: C_2  and  C_3 
REMARK       I    between atoms: C_3  and  N_4 
ROOT
HETATM    1  C   LIG     1      16.110  32.108  14.515  1.00  0.00     0.238 C 
HETATM    2  N   LIG     1      16.815  32.494  15.700  1.00  0.00    -0.367 N 
HETATM    3  O   LIG     1      16.157  32.858  13.505  1.00  0.00    -0.269 OA
HETATM    4  H   LIG     1      17.304  33.415  15.734  1.00  0.00     0.159 HD
HETATM    5  H   LIG     1      16.923  31.854  16.517  1.00  0.00     0.159 HD
ENDROOT
BRANCH   1   6
HETATM    6  C   LIG     1      15.344  30.849  14.423  1.00  0.00     0.064 C 
HETATM    7  C   LIG     1      14.283  30.567  15.180  1.00  0.00     0.017 C 
ENDBRANCH   1   6
TORSDOF 1
ENDMDL
MODEL 19
REMARK VINA RESULT:      -3.0     14.684     14.865
REMARK  1 active torsions:
REMARK  status: ('A' for Active; 'I' for Inactive)
REMARK    1  A    between atoms: C_2  and  C_3 
REMARK       I    between atoms: C_3  and  N_4 
ROOT
HETATM    1  C   LIG     1      14.566  28.133  13.825  1.00  0.00     0.238 C 
HETATM    2  N   LIG     1      13.317  27.511  13.506  1.00  0.00    -0.367 N 
HETATM    3  O   LIG     1      15.624  27.456  13.740  1.00  0.00    -0.269 OA
HETATM    4  H   LIG     1      13.291  26.495  13.269  1.00  0.00     0.159 HD
HETATM    5  H   LIG     1      12.428  28.053  13.429  1.00  0.00     0.159 HD
ENDROOT
BRANCH   1   6
HETATM    6  C   LIG     1      14.666  29.550  14.232  1.00  0.00     0.064 C 
HETATM    7  C   LIG     1      15.306  30.482  13.526  1.00  0.00     0.017 C 
ENDBRANCH   1   6
TORSDOF 1
ENDMDL
MODEL 20
REMARK VINA RESULT:      -2.9     11.293     11.479
REMARK  1 active torsions:
REMARK  status: ('A' for Active; 'I' for Inactive)
REMARK    1  A    between atoms: C_2  and  C_3 
REMARK       I    between atoms: C_3  and  N_4 
ROOT
HETATM    1  C   LIG     1      13.526  31.035  16.351  1.00  0.00     0.238 C 
HETATM    2  N   LIG     1      12.338  30.308  16.678  1.00  0.00    -0.367 N 
HETATM    3  O   LIG     1      14.203  30.680  15.351  1.00  0.00    -0.269 OA
HETATM    4  H   LIG     1      12.081  29.461  16.125  1.00  0.00     0.159 HD
HETATM    5  H   LIG     1      11.668  30.634  17.409  1.00  0.00     0.159 HD
ENDROOT
BRANCH   1   6
HETATM    6  C   LIG     1      13.981  32.204  17.132  1.00  0.00     0.064 C 
HETATM    7  C   LIG     1      14.963  33.019  16.746  1.00  0.00     0.017 C 
ENDBRANCH   1   6
TORSDOF 1
ENDMDL
