REMARK  0 active torsions:
REMARK  status: ('A' for Active; 'I' for Inactive)
ROOT
HETATM    1  C   LIG     1       0.691  -0.227   0.008  1.00  0.00     0.120 C 
HETATM    2 CL   LIG     1       1.893   0.988  -0.412  1.00  0.00    -0.094 Cl
HETATM    3  C   LIG     1      -0.619   0.043   0.036  1.00  0.00     0.114 C 
HETATM    4 CL   LIG     1      -1.247   1.643  -0.348  1.00  0.00    -0.070 Cl
HETATM    5 CL   LIG     1      -1.759  -1.222   0.464  1.00  0.00    -0.070 Cl
ENDROOT
TORSDOF 0
