MODEL 1
REMARK VINA RESULT:      -3.8      0.000      0.000
REMARK  0 active torsions:
REMARK  status: ('A' for Active; 'I' for Inactive)
ROOT
HETATM    1  C   LIG     1      17.145  37.602  24.894  1.00  0.00     0.120 C 
HETATM    2 CL   LIG     1      16.226  37.747  23.400  1.00  0.00    -0.094 Cl
HETATM    3  C   LIG     1      17.578  36.423  25.356  1.00  0.00     0.114 C 
HETATM    4 CL   LIG     1      17.260  34.917  24.500  1.00  0.00    -0.070 Cl
HETATM    5 CL   LIG     1      18.490  36.357  26.854  1.00  0.00    -0.070 Cl
ENDROOT
TORSDOF 0
ENDMDL
MODEL 2
REMARK VINA RESULT:      -3.7      1.759      2.543
REMARK  0 active torsions:
REMARK  status: ('A' for Active; 'I' for Inactive)
ROOT
HETATM    1  C   LIG     1      17.120  37.187  24.267  1.00  0.00     0.120 C 
HETATM    2 CL   LIG     1      17.308  38.060  25.783  1.00  0.00    -0.094 Cl
HETATM    3  C   LIG     1      17.180  35.852  24.197  1.00  0.00     0.114 C 
HETATM    4 CL   LIG     1      17.453  34.859  25.625  1.00  0.00    -0.070 Cl
HETATM    5 CL   LIG     1      16.982  35.052  22.647  1.00  0.00    -0.070 Cl
ENDROOT
TORSDOF 0
ENDMDL
MODEL 3
REMARK VINA RESULT:      -3.7      0.601      2.826
REMARK  0 active torsions:
REMARK  status: ('A' for Active; 'I' for Inactive)
ROOT
HETATM    1  C   LIG     1      17.676  37.314  25.638  1.00  0.00     0.120 C 
HETATM    2 CL   LIG     1      18.522  36.368  26.857  1.00  0.00    -0.094 Cl
HETATM    3  C   LIG     1      17.143  36.758  24.545  1.00  0.00     0.114 C 
HETATM    4 CL   LIG     1      17.244  35.027  24.239  1.00  0.00    -0.070 Cl
HETATM    5 CL   LIG     1      16.313  37.767  23.372  1.00  0.00    -0.070 Cl
ENDROOT
TORSDOF 0
ENDMDL
MODEL 4
REMARK VINA RESULT:      -3.6      1.464      3.369
REMARK  0 active torsions:
REMARK  status: ('A' for Active; 'I' for Inactive)
ROOT
HETATM    1  C   LIG     1      17.406  35.306  24.803  1.00  0.00     0.120 C 
HETATM    2 CL   LIG     1      18.055  34.762  26.346  1.00  0.00    -0.094 Cl
HETATM    3  C   LIG     1      17.149  36.595  24.550  1.00  0.00     0.114 C 
HETATM    4 CL   LIG     1      17.441  37.854  25.746  1.00  0.00    -0.070 Cl
HETATM    5 CL   LIG     1      16.502  37.062  22.986  1.00  0.00    -0.070 Cl
ENDROOT
TORSDOF 0
ENDMDL
MODEL 5
REMARK VINA RESULT:      -3.6      1.461      2.068
REMARK  0 active torsions:
REMARK  status: ('A' for Active; 'I' for Inactive)
ROOT
HETATM    1  C   LIG     1      16.906  36.778  23.330  1.00  0.00     0.120 C 
HETATM    2 CL   LIG     1      16.639  38.375  22.641  1.00  0.00    -0.094 Cl
HETATM    3  C   LIG     1      17.207  36.598  24.621  1.00  0.00     0.114 C 
HETATM    4 CL   LIG     1      17.360  37.951  25.738  1.00  0.00    -0.070 Cl
HETATM    5 CL   LIG     1      17.459  34.973  25.237  1.00  0.00    -0.070 Cl
ENDROOT
TORSDOF 0
ENDMDL
MODEL 6
REMARK VINA RESULT:      -3.5      4.393      5.204
REMARK  0 active torsions:
REMARK  status: ('A' for Active; 'I' for Inactive)
ROOT
HETATM    1  C   LIG     1      19.244  39.194  20.601  1.00  0.00     0.120 C 
HETATM    2 CL   LIG     1      20.465  38.853  19.381  1.00  0.00    -0.094 Cl
HETATM    3  C   LIG     1      18.323  38.293  20.963  1.00  0.00     0.114 C 
HETATM    4 CL   LIG     1      18.262  36.686  20.245  1.00  0.00    -0.070 Cl
HETATM    5 CL   LIG     1      17.137  38.706  22.190  1.00  0.00    -0.070 Cl
ENDROOT
TORSDOF 0
ENDMDL
MODEL 7
REMARK VINA RESULT:      -3.4      3.930      5.161
REMARK  0 active torsions:
REMARK  status: ('A' for Active; 'I' for Inactive)
ROOT
HETATM    1  C   LIG     1      17.523  37.679  21.564  1.00  0.00     0.120 C 
HETATM    2 CL   LIG     1      16.791  38.896  22.603  1.00  0.00    -0.094 Cl
HETATM    3  C   LIG     1      18.457  37.982  20.655  1.00  0.00     0.114 C 
HETATM    4 CL   LIG     1      19.030  39.632  20.427  1.00  0.00    -0.070 Cl
HETATM    5 CL   LIG     1      19.141  36.713  19.654  1.00  0.00    -0.070 Cl
ENDROOT
TORSDOF 0
ENDMDL
MODEL 8
REMARK VINA RESULT:      -3.4      4.906      5.751
REMARK  0 active torsions:
REMARK  status: ('A' for Active; 'I' for Inactive)
ROOT
HETATM    1  C   LIG     1      18.661  36.899  19.854  1.00  0.00     0.120 C 
HETATM    2 CL   LIG     1      17.321  36.059  20.627  1.00  0.00    -0.094 Cl
HETATM    3  C   LIG     1      19.003  38.151  20.179  1.00  0.00     0.114 C 
HETATM    4 CL   LIG     1      18.135  39.061  21.412  1.00  0.00    -0.070 Cl
HETATM    5 CL   LIG     1      20.353  38.923  19.364  1.00  0.00    -0.070 Cl
ENDROOT
TORSDOF 0
ENDMDL
MODEL 9
REMARK VINA RESULT:      -3.4      1.795      3.159
REMARK  0 active torsions:
REMARK  status: ('A' for Active; 'I' for Inactive)
ROOT
HETATM    1  C   LIG     1      17.180  36.741  24.617  1.00  0.00     0.120 C 
HETATM    2 CL   LIG     1      17.283  38.254  25.509  1.00  0.00    -0.094 Cl
HETATM    3  C   LIG     1      17.019  36.703  23.290  1.00  0.00     0.114 C 
HETATM    4 CL   LIG     1      16.898  38.171  22.325  1.00  0.00    -0.070 Cl
HETATM    5 CL   LIG     1      16.925  35.153  22.469  1.00  0.00    -0.070 Cl
ENDROOT
TORSDOF 0
ENDMDL
MODEL 10
REMARK VINA RESULT:      -3.3      4.151      4.687
REMARK  0 active torsions:
REMARK  status: ('A' for Active; 'I' for Inactive)
ROOT
HETATM    1  C   LIG     1      17.535  37.827  21.664  1.00  0.00     0.120 C 
HETATM    2 CL   LIG     1      18.464  39.319  21.576  1.00  0.00    -0.094 Cl
HETATM    3  C   LIG     1      17.789  36.779  20.871  1.00  0.00     0.114 C 
HETATM    4 CL   LIG     1      19.079  36.811  19.673  1.00  0.00    -0.070 Cl
HETATM    5 CL   LIG     1      16.819  35.323  21.018  1.00  0.00    -0.070 Cl
ENDROOT
TORSDOF 0
ENDMDL
MODEL 11
REMARK VINA RESULT:      -3.3      3.932      4.905
REMARK  0 active torsions:
REMARK  status: ('A' for Active; 'I' for Inactive)
ROOT
HETATM    1  C   LIG     1      17.496  37.256  21.684  1.00  0.00     0.120 C 
HETATM    2 CL   LIG     1      17.021  35.562  21.651  1.00  0.00    -0.094 Cl
HETATM    3  C   LIG     1      18.315  37.786  20.768  1.00  0.00     0.114 C 
HETATM    4 CL   LIG     1      18.983  36.827  19.451  1.00  0.00    -0.070 Cl
HETATM    5 CL   LIG     1      18.744  39.486  20.865  1.00  0.00    -0.070 Cl
ENDROOT
TORSDOF 0
ENDMDL
MODEL 12
REMARK VINA RESULT:      -3.3      1.811      3.416
REMARK  0 active torsions:
REMARK  status: ('A' for Active; 'I' for Inactive)
ROOT
HETATM    1  C   LIG     1      17.040  36.709  24.031  1.00  0.00     0.120 C 
HETATM    2 CL   LIG     1      17.296  35.008  24.402  1.00  0.00    -0.094 Cl
HETATM    3  C   LIG     1      17.012  37.171  22.776  1.00  0.00     0.114 C 
HETATM    4 CL   LIG     1      17.229  36.108  21.389  1.00  0.00    -0.070 Cl
HETATM    5 CL   LIG     1      16.751  38.883  22.484  1.00  0.00    -0.070 Cl
ENDROOT
TORSDOF 0
ENDMDL
MODEL 13
REMARK VINA RESULT:      -3.3      3.703      4.797
REMARK  0 active torsions:
REMARK  status: ('A' for Active; 'I' for Inactive)
ROOT
HETATM    1  C   LIG     1      17.923  36.624  20.611  1.00  0.00     0.120 C 
HETATM    2 CL   LIG     1      19.296  36.778  19.520  1.00  0.00    -0.094 Cl
HETATM    3  C   LIG     1      17.566  37.600  21.453  1.00  0.00     0.114 C 
HETATM    4 CL   LIG     1      18.445  39.125  21.536  1.00  0.00    -0.070 Cl
HETATM    5 CL   LIG     1      16.184  37.374  22.512  1.00  0.00    -0.070 Cl
ENDROOT
TORSDOF 0
ENDMDL
MODEL 14
REMARK VINA RESULT:      -3.3      1.806      2.728
REMARK  0 active torsions:
REMARK  status: ('A' for Active; 'I' for Inactive)
ROOT
HETATM    1  C   LIG     1      17.119  36.035  23.903  1.00  0.00     0.120 C 
HETATM    2 CL   LIG     1      16.974  35.164  22.381  1.00  0.00    -0.094 Cl
HETATM    3  C   LIG     1      17.128  37.371  23.965  1.00  0.00     0.114 C 
HETATM    4 CL   LIG     1      16.994  38.369  22.520  1.00  0.00    -0.070 Cl
HETATM    5 CL   LIG     1      17.275  38.170  25.522  1.00  0.00    -0.070 Cl
ENDROOT
TORSDOF 0
ENDMDL
MODEL 15
REMARK VINA RESULT:      -3.2      3.720      4.520
REMARK  0 active torsions:
REMARK  status: ('A' for Active; 'I' for Inactive)
ROOT
HETATM    1  C   LIG     1      17.724  37.959  21.413  1.00  0.00     0.120 C 
HETATM    2 CL   LIG     1      16.457  38.117  22.624  1.00  0.00    -0.094 Cl
HETATM    3  C   LIG     1      17.918  36.828  20.724  1.00  0.00     0.114 C 
HETATM    4 CL   LIG     1      16.916  35.402  20.977  1.00  0.00    -0.070 Cl
HETATM    5 CL   LIG     1      19.203  36.746  19.531  1.00  0.00    -0.070 Cl
ENDROOT
TORSDOF 0
ENDMDL
MODEL 16
REMARK VINA RESULT:      -3.2      8.022      8.959
REMARK  0 active torsions:
REMARK  status: ('A' for Active; 'I' for Inactive)
ROOT
HETATM    1  C   LIG     1      15.190  32.432  19.067  1.00  0.00     0.120 C 
HETATM    2 CL   LIG     1      14.870  31.045  20.101  1.00  0.00    -0.094 Cl
HETATM    3  C   LIG     1      14.766  32.492  17.799  1.00  0.00     0.114 C 
HETATM    4 CL   LIG     1      13.849  31.181  17.063  1.00  0.00    -0.070 Cl
HETATM    5 CL   LIG     1      15.123  33.910  16.828  1.00  0.00    -0.070 Cl
ENDROOT
TORSDOF 0
ENDMDL
MODEL 17
REMARK VINA RESULT:      -3.1      7.065      7.723
REMARK  0 active torsions:
REMARK  status: ('A' for Active; 'I' for Inactive)
ROOT
HETATM    1  C   LIG     1      14.918  32.528  18.032  1.00  0.00     0.120 C 
HETATM    2 CL   LIG     1      15.133  34.021  17.124  1.00  0.00    -0.094 Cl
HETATM    3  C   LIG     1      15.151  32.452  19.347  1.00  0.00     0.114 C 
HETATM    4 CL   LIG     1      15.693  33.845  20.278  1.00  0.00    -0.070 Cl
HETATM    5 CL   LIG     1      14.914  30.927  20.185  1.00  0.00    -0.070 Cl
ENDROOT
TORSDOF 0
ENDMDL
MODEL 18
REMARK VINA RESULT:      -3.1      3.298      3.953
REMARK  0 active torsions:
REMARK  status: ('A' for Active; 'I' for Inactive)
ROOT
HETATM    1  C   LIG     1      17.864  37.398  21.247  1.00  0.00     0.120 C 
HETATM    2 CL   LIG     1      18.074  39.144  21.160  1.00  0.00    -0.094 Cl
HETATM    3  C   LIG     1      16.881  36.831  21.955  1.00  0.00     0.114 C 
HETATM    4 CL   LIG     1      15.714  37.790  22.860  1.00  0.00    -0.070 Cl
HETATM    5 CL   LIG     1      16.736  35.081  21.993  1.00  0.00    -0.070 Cl
ENDROOT
TORSDOF 0
ENDMDL
MODEL 19
REMARK VINA RESULT:      -3.1      3.618      3.916
REMARK  0 active torsions:
REMARK  status: ('A' for Active; 'I' for Inactive)
ROOT
HETATM    1  C   LIG     1      15.985  36.903  22.153  1.00  0.00     0.120 C 
HETATM    2 CL   LIG     1      15.091  35.602  21.373  1.00  0.00    -0.094 Cl
HETATM    3  C   LIG     1      17.203  37.278  21.746  1.00  0.00     0.114 C 
HETATM    4 CL   LIG     1      18.012  36.496  20.391  1.00  0.00    -0.070 Cl
HETATM    5 CL   LIG     1      18.032  38.585  22.574  1.00  0.00    -0.070 Cl
ENDROOT
TORSDOF 0
ENDMDL
MODEL 20
REMARK VINA RESULT:      -3.0      8.290      9.252
REMARK  0 active torsions:
REMARK  status: ('A' for Active; 'I' for Inactive)
ROOT
HETATM    1  C   LIG     1      14.650  31.804  18.801  1.00  0.00     0.120 C 
HETATM    2 CL   LIG     1      15.566  32.826  19.902  1.00  0.00    -0.094 Cl
HETATM    3  C   LIG     1      14.361  32.180  17.550  1.00  0.00     0.114 C 
HETATM    4 CL   LIG     1      14.879  33.734  16.903  1.00  0.00    -0.070 Cl
HETATM    5 CL   LIG     1      13.442  31.105  16.509  1.00  0.00    -0.070 Cl
ENDROOT
TORSDOF 0
ENDMDL
