REMARK  1 active torsions:
REMARK  status: ('A' for Active; 'I' for Inactive)
REMARK    1  A    between atoms: C_2  and  C_3 
REMARK       I    between atoms: C_3  and  N_4 
ROOT
HETATM    1  C   LIG     1      -0.731   0.654  -0.047  1.00  0.00     0.238 C 
HETATM    2  N   LIG     1      -1.490  -0.540   0.167  1.00  0.00    -0.367 N 
HETATM    3  O   LIG     1      -1.341   1.741  -0.226  1.00  0.00    -0.269 OA
HETATM    4  H   LIG     1      -2.532  -0.508   0.111  1.00  0.00     0.159 HD
HETATM    5  H   LIG     1      -1.045  -1.440   0.452  1.00  0.00     0.159 HD
ENDROOT
BRANCH   1   6
HETATM    6  C   LIG     1       0.746   0.666  -0.046  1.00  0.00     0.064 C 
HETATM    7  C   LIG     1       1.498  -0.433  -0.103  1.00  0.00     0.017 C 
ENDBRANCH   1   6
TORSDOF 1
