MODEL 1
REMARK VINA RESULT:      -3.6      0.000      0.000
REMARK  1 active torsions:
REMARK  status: ('A' for Active; 'I' for Inactive)
REMARK    1  A    between atoms: C_2  and  C_4 
ROOT
HETATM    1 CL   LIG     1      17.856  38.164  23.987  1.00  0.00    -0.107 Cl
HETATM    2  C   LIG     1      17.248  36.794  24.949  1.00  0.00     0.192 C 
HETATM    3 CL   LIG     1      17.166  35.352  23.901  1.00  0.00    -0.107 Cl
ENDROOT
BRANCH   2   4
HETATM    4  C   LIG     1      18.172  36.547  26.141  1.00  0.00     0.150 C 
HETATM    5 CL   LIG     1      18.440  34.800  26.386  1.00  0.00    -0.128 Cl
ENDBRANCH   2   4
TORSDOF 1
ENDMDL
MODEL 2
REMARK VINA RESULT:      -3.5      0.677      2.747
REMARK  1 active torsions:
REMARK  status: ('A' for Active; 'I' for Inactive)
REMARK    1  A    between atoms: C_2  and  C_4 
ROOT
HETATM    1 CL   LIG     1      17.182  35.145  23.817  1.00  0.00    -0.107 Cl
HETATM    2  C   LIG     1      17.374  35.809  25.459  1.00  0.00     0.192 C 
HETATM    3 CL   LIG     1      18.493  34.761  26.372  1.00  0.00    -0.107 Cl
ENDROOT
BRANCH   2   4
HETATM    4  C   LIG     1      17.909  37.237  25.381  1.00  0.00     0.150 C 
HETATM    5 CL   LIG     1      17.543  37.969  23.796  1.00  0.00    -0.128 Cl
ENDBRANCH   2   4
TORSDOF 1
ENDMDL
MODEL 3
REMARK VINA RESULT:      -3.4      1.659      2.246
REMARK  1 active torsions:
REMARK  status: ('A' for Active; 'I' for Inactive)
REMARK    1  A    between atoms: C_2  and  C_4 
ROOT
HETATM    1 CL   LIG     1      17.133  35.379  23.926  1.00  0.00    -0.107 Cl
HETATM    2  C   LIG     1      17.178  37.158  23.850  1.00  0.00     0.192 C 
HETATM    3 CL   LIG     1      15.693  37.734  23.044  1.00  0.00    -0.107 Cl
ENDROOT
BRANCH   2   4
HETATM    4  C   LIG     1      17.288  37.735  25.261  1.00  0.00     0.150 C 
HETATM    5 CL   LIG     1      18.457  36.807  26.238  1.00  0.00    -0.128 Cl
ENDBRANCH   2   4
TORSDOF 1
ENDMDL
MODEL 4
REMARK VINA RESULT:      -3.3      1.319      3.287
REMARK  1 active torsions:
REMARK  status: ('A' for Active; 'I' for Inactive)
REMARK    1  A    between atoms: C_2  and  C_4 
ROOT
HETATM    1 CL   LIG     1      17.329  34.805  24.973  1.00  0.00    -0.107 Cl
HETATM    2  C   LIG     1      17.200  36.582  24.996  1.00  0.00     0.192 C 
HETATM    3 CL   LIG     1      18.699  37.255  25.692  1.00  0.00    -0.107 Cl
ENDROOT
BRANCH   2   4
HETATM    4  C   LIG     1      16.978  37.103  23.577  1.00  0.00     0.150 C 
HETATM    5 CL   LIG     1      17.987  38.540  23.263  1.00  0.00    -0.128 Cl
ENDBRANCH   2   4
TORSDOF 1
ENDMDL
MODEL 5
REMARK VINA RESULT:      -3.3      1.407      2.544
REMARK  1 active torsions:
REMARK  status: ('A' for Active; 'I' for Inactive)
REMARK    1  A    between atoms: C_2  and  C_4 
ROOT
HETATM    1 CL   LIG     1      17.266  38.046  25.800  1.00  0.00    -0.107 Cl
HETATM    2  C   LIG     1      17.693  36.646  24.784  1.00  0.00     0.192 C 
HETATM    3 CL   LIG     1      17.300  35.151  25.677  1.00  0.00    -0.107 Cl
ENDROOT
BRANCH   2   4
HETATM    4  C   LIG     1      16.924  36.709  23.466  1.00  0.00     0.150 C 
HETATM    5 CL   LIG     1      17.031  35.157  22.592  1.00  0.00    -0.128 Cl
ENDBRANCH   2   4
TORSDOF 1
ENDMDL
MODEL 6
REMARK VINA RESULT:      -3.2      0.992      2.851
REMARK  1 active torsions:
REMARK  status: ('A' for Active; 'I' for Inactive)
REMARK    1  A    between atoms: C_2  and  C_4 
ROOT
HETATM    1 CL   LIG     1      17.158  34.750  26.190  1.00  0.00    -0.107 Cl
HETATM    2  C   LIG     1      17.641  35.797  24.833  1.00  0.00     0.192 C 
HETATM    3 CL   LIG     1      17.019  35.091  23.316  1.00  0.00    -0.107 Cl
ENDROOT
BRANCH   2   4
HETATM    4  C   LIG     1      17.088  37.206  25.042  1.00  0.00     0.150 C 
HETATM    5 CL   LIG     1      17.821  38.355  23.892  1.00  0.00    -0.128 Cl
ENDBRANCH   2   4
TORSDOF 1
ENDMDL
MODEL 7
REMARK VINA RESULT:      -3.2      3.228      4.274
REMARK  1 active torsions:
REMARK  status: ('A' for Active; 'I' for Inactive)
REMARK    1  A    between atoms: C_2  and  C_4 
ROOT
HETATM    1 CL   LIG     1      18.295  36.587  20.181  1.00  0.00    -0.107 Cl
HETATM    2  C   LIG     1      17.043  36.632  21.447  1.00  0.00     0.192 C 
HETATM    3 CL   LIG     1      17.119  35.113  22.382  1.00  0.00    -0.107 Cl
ENDROOT
BRANCH   2   4
HETATM    4  C   LIG     1      17.267  37.840  22.355  1.00  0.00     0.150 C 
HETATM    5 CL   LIG     1      18.162  39.123  21.498  1.00  0.00    -0.128 Cl
ENDBRANCH   2   4
TORSDOF 1
ENDMDL
MODEL 8
REMARK VINA RESULT:      -3.2      4.336      4.966
REMARK  1 active torsions:
REMARK  status: ('A' for Active; 'I' for Inactive)
REMARK    1  A    between atoms: C_2  and  C_4 
ROOT
HETATM    1 CL   LIG     1      18.864  39.615  20.580  1.00  0.00    -0.107 Cl
HETATM    2  C   LIG     1      18.193  38.348  21.638  1.00  0.00     0.192 C 
HETATM    3 CL   LIG     1      16.710  38.973  22.409  1.00  0.00    -0.107 Cl
ENDROOT
BRANCH   2   4
HETATM    4  C   LIG     1      17.893  37.094  20.819  1.00  0.00     0.150 C 
HETATM    5 CL   LIG     1      19.189  36.782  19.634  1.00  0.00    -0.128 Cl
ENDBRANCH   2   4
TORSDOF 1
ENDMDL
MODEL 9
REMARK VINA RESULT:      -3.2      4.345      5.267
REMARK  1 active torsions:
REMARK  status: ('A' for Active; 'I' for Inactive)
REMARK    1  A    between atoms: C_2  and  C_4 
ROOT
HETATM    1 CL   LIG     1      16.925  38.973  22.333  1.00  0.00    -0.107 Cl
HETATM    2  C   LIG     1      18.369  38.347  21.497  1.00  0.00     0.192 C 
HETATM    3 CL   LIG     1      17.923  36.855  20.626  1.00  0.00    -0.107 Cl
ENDROOT
BRANCH   2   4
HETATM    4  C   LIG     1      18.905  39.400  20.530  1.00  0.00     0.150 C 
HETATM    5 CL   LIG     1      20.296  38.769  19.608  1.00  0.00    -0.128 Cl
ENDBRANCH   2   4
TORSDOF 1
ENDMDL
MODEL 10
REMARK VINA RESULT:      -3.2      3.495      4.606
REMARK  1 active torsions:
REMARK  status: ('A' for Active; 'I' for Inactive)
REMARK    1  A    between atoms: C_2  and  C_4 
ROOT
HETATM    1 CL   LIG     1      17.057  35.084  23.207  1.00  0.00    -0.107 Cl
HETATM    2  C   LIG     1      16.749  35.584  21.525  1.00  0.00     0.192 C 
HETATM    3 CL   LIG     1      14.988  35.748  21.290  1.00  0.00    -0.107 Cl
ENDROOT
BRANCH   2   4
HETATM    4  C   LIG     1      17.461  36.905  21.239  1.00  0.00     0.150 C 
HETATM    5 CL   LIG     1      18.646  36.716  19.919  1.00  0.00    -0.128 Cl
ENDBRANCH   2   4
TORSDOF 1
ENDMDL
MODEL 11
REMARK VINA RESULT:      -3.2      2.562      3.190
REMARK  1 active torsions:
REMARK  status: ('A' for Active; 'I' for Inactive)
REMARK    1  A    between atoms: C_2  and  C_4 
ROOT
HETATM    1 CL   LIG     1      18.432  38.918  22.315  1.00  0.00    -0.107 Cl
HETATM    2  C   LIG     1      17.231  37.658  21.938  1.00  0.00     0.192 C 
HETATM    3 CL   LIG     1      17.896  36.596  20.667  1.00  0.00    -0.107 Cl
ENDROOT
BRANCH   2   4
HETATM    4  C   LIG     1      16.904  36.859  23.198  1.00  0.00     0.150 C 
HETATM    5 CL   LIG     1      16.999  35.106  22.882  1.00  0.00    -0.128 Cl
ENDBRANCH   2   4
TORSDOF 1
ENDMDL
MODEL 12
REMARK VINA RESULT:      -3.1      1.980      2.530
REMARK  1 active torsions:
REMARK  status: ('A' for Active; 'I' for Inactive)
REMARK    1  A    between atoms: C_2  and  C_4 
ROOT
HETATM    1 CL   LIG     1      16.465  38.869  22.595  1.00  0.00    -0.107 Cl
HETATM    2  C   LIG     1      17.365  37.632  23.508  1.00  0.00     0.192 C 
HETATM    3 CL   LIG     1      17.101  37.905  25.252  1.00  0.00    -0.107 Cl
ENDROOT
BRANCH   2   4
HETATM    4  C   LIG     1      16.892  36.239  23.099  1.00  0.00     0.150 C 
HETATM    5 CL   LIG     1      17.291  35.037  24.356  1.00  0.00    -0.128 Cl
ENDBRANCH   2   4
TORSDOF 1
ENDMDL
MODEL 13
REMARK VINA RESULT:      -3.1      2.134      2.624
REMARK  1 active torsions:
REMARK  status: ('A' for Active; 'I' for Inactive)
REMARK    1  A    between atoms: C_2  and  C_4 
ROOT
HETATM    1 CL   LIG     1      17.432  36.385  21.216  1.00  0.00    -0.107 Cl
HETATM    2  C   LIG     1      16.746  36.576  22.849  1.00  0.00     0.192 C 
HETATM    3 CL   LIG     1      17.172  35.140  23.820  1.00  0.00    -0.107 Cl
ENDROOT
BRANCH   2   4
HETATM    4  C   LIG     1      17.292  37.848  23.495  1.00  0.00     0.150 C 
HETATM    5 CL   LIG     1      17.968  37.504  25.109  1.00  0.00    -0.128 Cl
ENDBRANCH   2   4
TORSDOF 1
ENDMDL
MODEL 14
REMARK VINA RESULT:      -3.1      4.261      4.945
REMARK  1 active torsions:
REMARK  status: ('A' for Active; 'I' for Inactive)
REMARK    1  A    between atoms: C_2  and  C_4 
ROOT
HETATM    1 CL   LIG     1      16.101  35.363  20.229  1.00  0.00    -0.107 Cl
HETATM    2  C   LIG     1      17.487  36.154  21.020  1.00  0.00     0.192 C 
HETATM    3 CL   LIG     1      18.587  36.774  19.759  1.00  0.00    -0.107 Cl
ENDROOT
BRANCH   2   4
HETATM    4  C   LIG     1      16.995  37.289  21.916  1.00  0.00     0.150 C 
HETATM    5 CL   LIG     1      17.814  38.821  21.511  1.00  0.00    -0.128 Cl
ENDBRANCH   2   4
TORSDOF 1
ENDMDL
MODEL 15
REMARK VINA RESULT:      -3.0      3.143      4.171
REMARK  1 active torsions:
REMARK  status: ('A' for Active; 'I' for Inactive)
REMARK    1  A    between atoms: C_2  and  C_4 
ROOT
HETATM    1 CL   LIG     1      15.616  37.543  22.704  1.00  0.00    -0.107 Cl
HETATM    2  C   LIG     1      17.062  36.565  22.351  1.00  0.00     0.192 C 
HETATM    3 CL   LIG     1      17.079  35.155  23.445  1.00  0.00    -0.107 Cl
ENDROOT
BRANCH   2   4
HETATM    4  C   LIG     1      17.042  36.118  20.890  1.00  0.00     0.150 C 
HETATM    5 CL   LIG     1      18.507  36.668  20.036  1.00  0.00    -0.128 Cl
ENDBRANCH   2   4
TORSDOF 1
ENDMDL
MODEL 16
REMARK VINA RESULT:      -3.0      5.706      6.557
REMARK  1 active torsions:
REMARK  status: ('A' for Active; 'I' for Inactive)
REMARK    1  A    between atoms: C_2  and  C_4 
ROOT
HETATM    1 CL   LIG     1      20.758  38.728  19.514  1.00  0.00    -0.107 Cl
HETATM    2  C   LIG     1      19.040  38.534  19.086  1.00  0.00     0.192 C 
HETATM    3 CL   LIG     1      18.772  39.235  17.466  1.00  0.00    -0.107 Cl
ENDROOT
BRANCH   2   4
HETATM    4  C   LIG     1      18.665  37.053  19.105  1.00  0.00     0.150 C 
HETATM    5 CL   LIG     1      17.884  36.615  20.648  1.00  0.00    -0.128 Cl
ENDBRANCH   2   4
TORSDOF 1
ENDMDL
MODEL 17
REMARK VINA RESULT:      -3.0      2.674      3.557
REMARK  1 active torsions:
REMARK  status: ('A' for Active; 'I' for Inactive)
REMARK    1  A    between atoms: C_2  and  C_4 
ROOT
HETATM    1 CL   LIG     1      17.232  37.896  25.175  1.00  0.00    -0.107 Cl
HETATM    2  C   LIG     1      16.417  37.681  23.606  1.00  0.00     0.192 C 
HETATM    3 CL   LIG     1      16.853  39.047  22.543  1.00  0.00    -0.107 Cl
ENDROOT
BRANCH   2   4
HETATM    4  C   LIG     1      16.838  36.352  22.981  1.00  0.00     0.150 C 
HETATM    5 CL   LIG     1      15.710  35.873  21.684  1.00  0.00    -0.128 Cl
ENDBRANCH   2   4
TORSDOF 1
ENDMDL
MODEL 18
REMARK VINA RESULT:      -3.0      3.552      4.580
REMARK  1 active torsions:
REMARK  status: ('A' for Active; 'I' for Inactive)
REMARK    1  A    between atoms: C_2  and  C_4 
ROOT
HETATM    1 CL   LIG     1      17.541  37.431  21.399  1.00  0.00    -0.107 Cl
HETATM    2  C   LIG     1      17.244  35.675  21.354  1.00  0.00     0.192 C 
HETATM    3 CL   LIG     1      16.996  35.095  23.024  1.00  0.00    -0.107 Cl
ENDROOT
BRANCH   2   4
HETATM    4  C   LIG     1      16.020  35.379  20.490  1.00  0.00     0.150 C 
HETATM    5 CL   LIG     1      15.710  33.624  20.406  1.00  0.00    -0.128 Cl
ENDBRANCH   2   4
TORSDOF 1
ENDMDL
MODEL 19
REMARK VINA RESULT:      -2.9     12.175     13.091
REMARK  1 active torsions:
REMARK  status: ('A' for Active; 'I' for Inactive)
REMARK    1  A    between atoms: C_2  and  C_4 
ROOT
HETATM    1 CL   LIG     1      15.324  28.127  13.754  1.00  0.00    -0.107 Cl
HETATM    2  C   LIG     1      14.958  29.727  14.449  1.00  0.00     0.192 C 
HETATM    3 CL   LIG     1      15.509  30.984  13.309  1.00  0.00    -0.107 Cl
ENDROOT
BRANCH   2   4
HETATM    4  C   LIG     1      13.457  29.848  14.707  1.00  0.00     0.150 C 
HETATM    5 CL   LIG     1      13.143  30.696  16.245  1.00  0.00    -0.128 Cl
ENDBRANCH   2   4
TORSDOF 1
ENDMDL
MODEL 20
REMARK VINA RESULT:      -2.9      8.603      9.663
REMARK  1 active torsions:
REMARK  status: ('A' for Active; 'I' for Inactive)
REMARK    1  A    between atoms: C_2  and  C_4 
ROOT
HETATM    1 CL   LIG     1      14.947  34.182  16.883  1.00  0.00    -0.107 Cl
HETATM    2  C   LIG     1      14.925  32.480  17.406  1.00  0.00     0.192 C 
HETATM    3 CL   LIG     1      15.309  32.411  19.147  1.00  0.00    -0.107 Cl
ENDROOT
BRANCH   2   4
HETATM    4  C   LIG     1      13.552  31.870  17.129  1.00  0.00     0.150 C 
HETATM    5 CL   LIG     1      13.640  30.682  15.800  1.00  0.00    -0.128 Cl
ENDBRANCH   2   4
TORSDOF 1
ENDMDL
