MODEL 1
REMARK VINA RESULT:      -3.8      0.000      0.000
REMARK  1 active torsions:
REMARK  status: ('A' for Active; 'I' for Inactive)
REMARK       I    between atoms: N_1  and  C_2 
REMARK    1  A    between atoms: C_2  and  C_3 
ROOT
HETATM    1  N   LIG     1      17.278  38.618  25.643  1.00  0.00    -0.369 N 
HETATM    2  C   LIG     1      17.593  37.232  25.505  1.00  0.00     0.229 C 
HETATM    3  O   LIG     1      17.160  36.588  24.513  1.00  0.00    -0.273 OA
HETATM    4  H   LIG     1      17.610  39.160  26.472  1.00  0.00     0.159 HD
HETATM    5  H   LIG     1      16.708  39.103  24.916  1.00  0.00     0.159 HD
ENDROOT
BRANCH   2   6
HETATM    6  C   LIG     1      18.393  36.532  26.556  1.00  0.00     0.217 C 
HETATM    7 CL   LIG     1      18.288  34.771  26.313  1.00  0.00    -0.121 Cl
ENDBRANCH   2   6
TORSDOF 1
ENDMDL
MODEL 2
REMARK VINA RESULT:      -3.7      1.322      1.405
REMARK  1 active torsions:
REMARK  status: ('A' for Active; 'I' for Inactive)
REMARK       I    between atoms: N_1  and  C_2 
REMARK    1  A    between atoms: C_2  and  C_3 
ROOT
HETATM    1  N   LIG     1      18.321  37.774  25.736  1.00  0.00    -0.369 N 
HETATM    2  C   LIG     1      17.270  37.157  24.993  1.00  0.00     0.229 C 
HETATM    3  O   LIG     1      16.305  37.853  24.579  1.00  0.00    -0.273 OA
HETATM    4  H   LIG     1      19.116  37.206  26.106  1.00  0.00     0.159 HD
HETATM    5  H   LIG     1      18.304  38.801  25.920  1.00  0.00     0.159 HD
ENDROOT
BRANCH   2   6
HETATM    6  C   LIG     1      17.284  35.682  24.746  1.00  0.00     0.217 C 
HETATM    7 CL   LIG     1      17.977  34.846  26.155  1.00  0.00    -0.121 Cl
ENDBRANCH   2   6
TORSDOF 1
ENDMDL
MODEL 3
REMARK VINA RESULT:      -3.6      1.625      1.625
REMARK  1 active torsions:
REMARK  status: ('A' for Active; 'I' for Inactive)
REMARK       I    between atoms: N_1  and  C_2 
REMARK    1  A    between atoms: C_2  and  C_3 
ROOT
HETATM    1  N   LIG     1      17.106  36.262  23.714  1.00  0.00    -0.369 N 
HETATM    2  C   LIG     1      17.240  37.051  24.896  1.00  0.00     0.229 C 
HETATM    3  O   LIG     1      16.586  38.122  25.010  1.00  0.00    -0.273 OA
HETATM    4  H   LIG     1      17.659  35.384  23.595  1.00  0.00     0.159 HD
HETATM    5  H   LIG     1      16.456  36.558  22.954  1.00  0.00     0.159 HD
ENDROOT
BRANCH   2   6
HETATM    6  C   LIG     1      18.185  36.637  25.978  1.00  0.00     0.217 C 
HETATM    7 CL   LIG     1      18.135  34.869  26.173  1.00  0.00    -0.121 Cl
ENDBRANCH   2   6
TORSDOF 1
ENDMDL
MODEL 4
REMARK VINA RESULT:      -3.3      2.928      3.245
REMARK  1 active torsions:
REMARK  status: ('A' for Active; 'I' for Inactive)
REMARK       I    between atoms: N_1  and  C_2 
REMARK    1  A    between atoms: C_2  and  C_3 
ROOT
HETATM    1  N   LIG     1      17.265  38.564  25.486  1.00  0.00    -0.369 N 
HETATM    2  C   LIG     1      16.950  37.498  24.591  1.00  0.00     0.229 C 
HETATM    3  O   LIG     1      17.333  36.327  24.854  1.00  0.00    -0.273 OA
HETATM    4  H   LIG     1      16.975  39.544  25.270  1.00  0.00     0.159 HD
HETATM    5  H   LIG     1      17.793  38.375  26.366  1.00  0.00     0.159 HD
ENDROOT
BRANCH   2   6
HETATM    6  C   LIG     1      16.209  37.771  23.321  1.00  0.00     0.217 C 
HETATM    7 CL   LIG     1      17.149  38.894  22.310  1.00  0.00    -0.121 Cl
ENDBRANCH   2   6
TORSDOF 1
ENDMDL
MODEL 5
REMARK VINA RESULT:      -3.3      7.029      7.195
REMARK  1 active torsions:
REMARK  status: ('A' for Active; 'I' for Inactive)
REMARK       I    between atoms: N_1  and  C_2 
REMARK    1  A    between atoms: C_2  and  C_3 
ROOT
HETATM    1  N   LIG     1      14.346  33.682  21.367  1.00  0.00    -0.369 N 
HETATM    2  C   LIG     1      15.364  33.587  20.371  1.00  0.00     0.229 C 
HETATM    3  O   LIG     1      16.219  34.506  20.262  1.00  0.00    -0.273 OA
HETATM    4  H   LIG     1      13.616  32.940  21.455  1.00  0.00     0.159 HD
HETATM    5  H   LIG     1      14.318  34.498  22.017  1.00  0.00     0.159 HD
ENDROOT
BRANCH   2   6
HETATM    6  C   LIG     1      15.392  32.428  19.427  1.00  0.00     0.217 C 
HETATM    7 CL   LIG     1      14.838  30.960  20.266  1.00  0.00    -0.121 Cl
ENDBRANCH   2   6
TORSDOF 1
ENDMDL
MODEL 6
REMARK VINA RESULT:      -3.2      7.651      7.682
REMARK  1 active torsions:
REMARK  status: ('A' for Active; 'I' for Inactive)
REMARK       I    between atoms: N_1  and  C_2 
REMARK    1  A    between atoms: C_2  and  C_3 
ROOT
HETATM    1  N   LIG     1      13.703  31.445  28.725  1.00  0.00    -0.369 N 
HETATM    2  C   LIG     1      12.938  31.644  27.536  1.00  0.00     0.229 C 
HETATM    3  O   LIG     1      12.553  32.803  27.227  1.00  0.00    -0.273 OA
HETATM    4  H   LIG     1      14.010  30.487  29.006  1.00  0.00     0.159 HD
HETATM    5  H   LIG     1      13.962  32.256  29.327  1.00  0.00     0.159 HD
ENDROOT
BRANCH   2   6
HETATM    6  C   LIG     1      12.552  30.479  26.682  1.00  0.00     0.217 C 
HETATM    7 CL   LIG     1      12.399  31.003  24.988  1.00  0.00    -0.121 Cl
ENDBRANCH   2   6
TORSDOF 1
ENDMDL
MODEL 7
REMARK VINA RESULT:      -3.2      2.653      2.653
REMARK  1 active torsions:
REMARK  status: ('A' for Active; 'I' for Inactive)
REMARK       I    between atoms: N_1  and  C_2 
REMARK    1  A    between atoms: C_2  and  C_3 
ROOT
HETATM    1  N   LIG     1      17.030  34.652  26.377  1.00  0.00    -0.369 N 
HETATM    2  C   LIG     1      17.486  35.619  25.432  1.00  0.00     0.229 C 
HETATM    3  O   LIG     1      17.305  35.424  24.201  1.00  0.00    -0.273 OA
HETATM    4  H   LIG     1      17.193  34.789  27.400  1.00  0.00     0.159 HD
HETATM    5  H   LIG     1      16.531  33.794  26.055  1.00  0.00     0.159 HD
ENDROOT
BRANCH   2   6
HETATM    6  C   LIG     1      18.217  36.839  25.892  1.00  0.00     0.217 C 
HETATM    7 CL   LIG     1      17.327  38.296  25.390  1.00  0.00    -0.121 Cl
ENDBRANCH   2   6
TORSDOF 1
ENDMDL
MODEL 8
REMARK VINA RESULT:      -3.1      2.182      2.372
REMARK  1 active torsions:
REMARK  status: ('A' for Active; 'I' for Inactive)
REMARK       I    between atoms: N_1  and  C_2 
REMARK    1  A    between atoms: C_2  and  C_3 
ROOT
HETATM    1  N   LIG     1      18.722  37.058  26.445  1.00  0.00    -0.369 N 
HETATM    2  C   LIG     1      17.870  36.133  25.769  1.00  0.00     0.229 C 
HETATM    3  O   LIG     1      17.744  34.960  26.213  1.00  0.00    -0.273 OA
HETATM    4  H   LIG     1      18.854  38.027  26.076  1.00  0.00     0.159 HD
HETATM    5  H   LIG     1      19.225  36.774  27.313  1.00  0.00     0.159 HD
ENDROOT
BRANCH   2   6
HETATM    6  C   LIG     1      17.163  36.534  24.514  1.00  0.00     0.217 C 
HETATM    7 CL   LIG     1      17.096  35.150  23.398  1.00  0.00    -0.121 Cl
ENDBRANCH   2   6
TORSDOF 1
ENDMDL
MODEL 9
REMARK VINA RESULT:      -3.1     10.911     10.992
REMARK  1 active torsions:
REMARK  status: ('A' for Active; 'I' for Inactive)
REMARK       I    between atoms: N_1  and  C_2 
REMARK    1  A    between atoms: C_2  and  C_3 
ROOT
HETATM    1  N   LIG     1      14.134  31.890  18.742  1.00  0.00    -0.369 N 
HETATM    2  C   LIG     1      13.806  31.890  17.352  1.00  0.00     0.229 C 
HETATM    3  O   LIG     1      12.632  31.615  16.988  1.00  0.00    -0.273 OA
HETATM    4  H   LIG     1      15.109  32.094  19.058  1.00  0.00     0.159 HD
HETATM    5  H   LIG     1      13.403  31.683  19.456  1.00  0.00     0.159 HD
ENDROOT
BRANCH   2   6
HETATM    6  C   LIG     1      14.857  32.169  16.327  1.00  0.00     0.217 C 
HETATM    7 CL   LIG     1      14.785  30.937  15.045  1.00  0.00    -0.121 Cl
ENDBRANCH   2   6
TORSDOF 1
ENDMDL
MODEL 10
REMARK VINA RESULT:      -3.1      6.659      6.849
REMARK  1 active torsions:
REMARK  status: ('A' for Active; 'I' for Inactive)
REMARK       I    between atoms: N_1  and  C_2 
REMARK    1  A    between atoms: C_2  and  C_3 
ROOT
HETATM    1  N   LIG     1      18.660  39.680  18.219  1.00  0.00    -0.369 N 
HETATM    2  C   LIG     1      19.388  39.160  19.332  1.00  0.00     0.229 C 
HETATM    3  O   LIG     1      20.639  39.307  19.385  1.00  0.00    -0.273 OA
HETATM    4  H   LIG     1      17.627  39.546  18.150  1.00  0.00     0.159 HD
HETATM    5  H   LIG     1      19.156  40.197  17.461  1.00  0.00     0.159 HD
ENDROOT
BRANCH   2   6
HETATM    6  C   LIG     1      18.682  38.403  20.410  1.00  0.00     0.217 C 
HETATM    7 CL   LIG     1      18.563  36.686  19.955  1.00  0.00    -0.121 Cl
ENDBRANCH   2   6
TORSDOF 1
ENDMDL
MODEL 11
REMARK VINA RESULT:      -3.1      9.395      9.532
REMARK  1 active torsions:
REMARK  status: ('A' for Active; 'I' for Inactive)
REMARK       I    between atoms: N_1  and  C_2 
REMARK    1  A    between atoms: C_2  and  C_3 
ROOT
HETATM    1  N   LIG     1      13.890  33.149  16.963  1.00  0.00    -0.369 N 
HETATM    2  C   LIG     1      14.238  32.064  17.822  1.00  0.00     0.229 C 
HETATM    3  O   LIG     1      13.779  30.913  17.594  1.00  0.00    -0.273 OA
HETATM    4  H   LIG     1      14.244  34.113  17.153  1.00  0.00     0.159 HD
HETATM    5  H   LIG     1      13.273  32.989  16.137  1.00  0.00     0.159 HD
ENDROOT
BRANCH   2   6
HETATM    6  C   LIG     1      15.107  32.295  19.017  1.00  0.00     0.217 C 
HETATM    7 CL   LIG     1      14.856  30.989  20.200  1.00  0.00    -0.121 Cl
ENDBRANCH   2   6
TORSDOF 1
ENDMDL
MODEL 12
REMARK VINA RESULT:      -3.1      3.806      4.058
REMARK  1 active torsions:
REMARK  status: ('A' for Active; 'I' for Inactive)
REMARK       I    between atoms: N_1  and  C_2 
REMARK    1  A    between atoms: C_2  and  C_3 
ROOT
HETATM    1  N   LIG     1      16.891  36.455  23.002  1.00  0.00    -0.369 N 
HETATM    2  C   LIG     1      16.722  37.784  23.495  1.00  0.00     0.229 C 
HETATM    3  O   LIG     1      16.340  37.967  24.682  1.00  0.00    -0.273 OA
HETATM    4  H   LIG     1      17.185  36.287  22.014  1.00  0.00     0.159 HD
HETATM    5  H   LIG     1      16.719  35.636  23.625  1.00  0.00     0.159 HD
ENDROOT
BRANCH   2   6
HETATM    6  C   LIG     1      16.951  38.958  22.598  1.00  0.00     0.217 C 
HETATM    7 CL   LIG     1      18.071  38.503  21.292  1.00  0.00    -0.121 Cl
ENDBRANCH   2   6
TORSDOF 1
ENDMDL
MODEL 13
REMARK VINA RESULT:      -3.0      4.331      4.368
REMARK  1 active torsions:
REMARK  status: ('A' for Active; 'I' for Inactive)
REMARK       I    between atoms: N_1  and  C_2 
REMARK    1  A    between atoms: C_2  and  C_3 
ROOT
HETATM    1  N   LIG     1      14.404  35.675  21.185  1.00  0.00    -0.369 N 
HETATM    2  C   LIG     1      15.558  36.115  21.900  1.00  0.00     0.229 C 
HETATM    3  O   LIG     1      15.587  37.277  22.387  1.00  0.00    -0.273 OA
HETATM    4  H   LIG     1      14.375  34.723  20.755  1.00  0.00     0.159 HD
HETATM    5  H   LIG     1      13.578  36.302  21.080  1.00  0.00     0.159 HD
ENDROOT
BRANCH   2   6
HETATM    6  C   LIG     1      16.750  35.223  22.034  1.00  0.00     0.217 C 
HETATM    7 CL   LIG     1      17.152  35.016  23.756  1.00  0.00    -0.121 Cl
ENDBRANCH   2   6
TORSDOF 1
ENDMDL
MODEL 14
REMARK VINA RESULT:      -3.0      9.843     10.031
REMARK  1 active torsions:
REMARK  status: ('A' for Active; 'I' for Inactive)
REMARK       I    between atoms: N_1  and  C_2 
REMARK    1  A    between atoms: C_2  and  C_3 
ROOT
HETATM    1  N   LIG     1      14.210  31.421  18.965  1.00  0.00    -0.369 N 
HETATM    2  C   LIG     1      14.864  32.403  18.163  1.00  0.00     0.229 C 
HETATM    3  O   LIG     1      15.553  33.303  18.715  1.00  0.00    -0.273 OA
HETATM    4  H   LIG     1      13.616  30.683  18.524  1.00  0.00     0.159 HD
HETATM    5  H   LIG     1      14.315  31.432  20.003  1.00  0.00     0.159 HD
ENDROOT
BRANCH   2   6
HETATM    6  C   LIG     1      14.699  32.399  16.677  1.00  0.00     0.217 C 
HETATM    7 CL   LIG     1      13.857  30.914  16.173  1.00  0.00    -0.121 Cl
ENDBRANCH   2   6
TORSDOF 1
ENDMDL
MODEL 15
REMARK VINA RESULT:      -3.0      5.412      5.451
REMARK  1 active torsions:
REMARK  status: ('A' for Active; 'I' for Inactive)
REMARK       I    between atoms: N_1  and  C_2 
REMARK    1  A    between atoms: C_2  and  C_3 
ROOT
HETATM    1  N   LIG     1      19.374  39.360  20.785  1.00  0.00    -0.369 N 
HETATM    2  C   LIG     1      18.246  38.579  21.177  1.00  0.00     0.229 C 
HETATM    3  O   LIG     1      17.410  39.053  21.992  1.00  0.00    -0.273 OA
HETATM    4  H   LIG     1      20.088  38.972  20.128  1.00  0.00     0.159 HD
HETATM    5  H   LIG     1      19.499  40.328  21.154  1.00  0.00     0.159 HD
ENDROOT
BRANCH   2   6
HETATM    6  C   LIG     1      18.075  37.186  20.663  1.00  0.00     0.217 C 
HETATM    7 CL   LIG     1      19.395  36.799  19.533  1.00  0.00    -0.121 Cl
ENDBRANCH   2   6
TORSDOF 1
ENDMDL
MODEL 16
REMARK VINA RESULT:      -3.0     10.334     10.458
REMARK  1 active torsions:
REMARK  status: ('A' for Active; 'I' for Inactive)
REMARK       I    between atoms: N_1  and  C_2 
REMARK    1  A    between atoms: C_2  and  C_3 
ROOT
HETATM    1  N   LIG     1      14.757  34.478  17.088  1.00  0.00    -0.369 N 
HETATM    2  C   LIG     1      14.985  33.079  16.916  1.00  0.00     0.229 C 
HETATM    3  O   LIG     1      16.122  32.670  16.561  1.00  0.00    -0.273 OA
HETATM    4  H   LIG     1      13.813  34.834  17.359  1.00  0.00     0.159 HD
HETATM    5  H   LIG     1      15.532  35.160  16.940  1.00  0.00     0.159 HD
ENDROOT
BRANCH   2   6
HETATM    6  C   LIG     1      13.869  32.103  17.110  1.00  0.00     0.217 C 
HETATM    7 CL   LIG     1      13.962  30.834  15.865  1.00  0.00    -0.121 Cl
ENDBRANCH   2   6
TORSDOF 1
ENDMDL
MODEL 17
REMARK VINA RESULT:      -3.0     13.786     13.932
REMARK  1 active torsions:
REMARK  status: ('A' for Active; 'I' for Inactive)
REMARK       I    between atoms: N_1  and  C_2 
REMARK    1  A    between atoms: C_2  and  C_3 
ROOT
HETATM    1  N   LIG     1      12.728  28.778  13.984  1.00  0.00    -0.369 N 
HETATM    2  C   LIG     1      14.034  29.289  14.249  1.00  0.00     0.229 C 
HETATM    3  O   LIG     1      15.046  28.658  13.843  1.00  0.00    -0.273 OA
HETATM    4  H   LIG     1      11.880  29.277  14.334  1.00  0.00     0.159 HD
HETATM    5  H   LIG     1      12.607  27.896  13.440  1.00  0.00     0.159 HD
ENDROOT
BRANCH   2   6
HETATM    6  C   LIG     1      14.208  30.543  15.044  1.00  0.00     0.217 C 
HETATM    7 CL   LIG     1      12.886  30.689  16.227  1.00  0.00    -0.121 Cl
ENDBRANCH   2   6
TORSDOF 1
ENDMDL
MODEL 18
REMARK VINA RESULT:      -3.0      5.707      5.896
REMARK  1 active torsions:
REMARK  status: ('A' for Active; 'I' for Inactive)
REMARK       I    between atoms: N_1  and  C_2 
REMARK    1  A    between atoms: C_2  and  C_3 
ROOT
HETATM    1  N   LIG     1      15.599  34.485  19.559  1.00  0.00    -0.369 N 
HETATM    2  C   LIG     1      15.404  34.778  20.942  1.00  0.00     0.229 C 
HETATM    3  O   LIG     1      14.593  34.091  21.618  1.00  0.00    -0.273 OA
HETATM    4  H   LIG     1      16.251  35.061  18.979  1.00  0.00     0.159 HD
HETATM    5  H   LIG     1      15.088  33.693  19.110  1.00  0.00     0.159 HD
ENDROOT
BRANCH   2   6
HETATM    6  C   LIG     1      16.121  35.924  21.580  1.00  0.00     0.217 C 
HETATM    7 CL   LIG     1      17.650  36.226  20.722  1.00  0.00    -0.121 Cl
ENDBRANCH   2   6
TORSDOF 1
ENDMDL
MODEL 19
REMARK VINA RESULT:      -2.9      5.399      5.597
REMARK  1 active torsions:
REMARK  status: ('A' for Active; 'I' for Inactive)
REMARK       I    between atoms: N_1  and  C_2 
REMARK    1  A    between atoms: C_2  and  C_3 
ROOT
HETATM    1  N   LIG     1      18.702  36.577  19.585  1.00  0.00    -0.369 N 
HETATM    2  C   LIG     1      17.594  36.365  20.459  1.00  0.00     0.229 C 
HETATM    3  O   LIG     1      16.794  35.418  20.235  1.00  0.00    -0.273 OA
HETATM    4  H   LIG     1      19.361  37.372  19.743  1.00  0.00     0.159 HD
HETATM    5  H   LIG     1      18.864  35.940  18.775  1.00  0.00     0.159 HD
ENDROOT
BRANCH   2   6
HETATM    6  C   LIG     1      17.351  37.289  21.609  1.00  0.00     0.217 C 
HETATM    7 CL   LIG     1      18.169  38.842  21.312  1.00  0.00    -0.121 Cl
ENDBRANCH   2   6
TORSDOF 1
ENDMDL
MODEL 20
REMARK VINA RESULT:      -2.8      5.649      5.695
REMARK  1 active torsions:
REMARK  status: ('A' for Active; 'I' for Inactive)
REMARK       I    between atoms: N_1  and  C_2 
REMARK    1  A    between atoms: C_2  and  C_3 
ROOT
HETATM    1  N   LIG     1      17.478  36.156  21.035  1.00  0.00    -0.369 N 
HETATM    2  C   LIG     1      18.326  36.984  20.239  1.00  0.00     0.229 C 
HETATM    3  O   LIG     1      18.824  36.528  19.174  1.00  0.00    -0.273 OA
HETATM    4  H   LIG     1      17.077  36.511  21.931  1.00  0.00     0.159 HD
HETATM    5  H   LIG     1      17.253  35.184  20.729  1.00  0.00     0.159 HD
ENDROOT
BRANCH   2   6
HETATM    6  C   LIG     1      18.664  38.370  20.685  1.00  0.00     0.217 C 
HETATM    7 CL   LIG     1      17.479  38.914  21.896  1.00  0.00    -0.121 Cl
ENDBRANCH   2   6
TORSDOF 1
ENDMDL
