MODEL 1
REMARK VINA RESULT:      -3.7      0.000      0.000
REMARK  2 active torsions:
REMARK  status: ('A' for Active; 'I' for Inactive)
REMARK    1  A    between atoms: O_1  and  C_2 
REMARK    2  A    between atoms: C_2  and  C_3 
ROOT
HETATM    1  C   LIG     1      16.970  37.637  25.038  1.00  0.00     0.153 C 
HETATM    2  O   LIG     1      16.055  37.944  24.227  1.00  0.00    -0.649 OA
ENDROOT
BRANCH   1   3
HETATM    3  O   LIG     1      17.548  38.617  25.839  1.00  0.00    -0.776 OA
HETATM    4  H   LIG     1      17.786  38.424  26.805  1.00  0.00     0.167 HD
ENDBRANCH   1   3
BRANCH   1   5
HETATM    5  C   LIG     1      17.469  36.233  25.105  1.00  0.00     0.224 C 
HETATM    6 CL   LIG     1      18.343  35.981  26.634  1.00  0.00    -0.119 Cl
ENDBRANCH   1   5
TORSDOF 2
ENDMDL
MODEL 2
REMARK VINA RESULT:      -3.5      1.719      1.922
REMARK  2 active torsions:
REMARK  status: ('A' for Active; 'I' for Inactive)
REMARK    1  A    between atoms: O_1  and  C_2 
REMARK    2  A    between atoms: C_2  and  C_3 
ROOT
HETATM    1  C   LIG     1      16.610  37.505  24.166  1.00  0.00     0.153 C 
HETATM    2  O   LIG     1      17.102  36.531  23.535  1.00  0.00    -0.649 OA
ENDROOT
BRANCH   1   3
HETATM    3  O   LIG     1      15.400  38.059  23.758  1.00  0.00    -0.776 OA
HETATM    4  H   LIG     1      14.528  37.562  23.898  1.00  0.00     0.167 HD
ENDBRANCH   1   3
BRANCH   1   5
HETATM    5  C   LIG     1      17.347  38.098  25.319  1.00  0.00     0.224 C 
HETATM    6 CL   LIG     1      18.434  36.880  26.025  1.00  0.00    -0.119 Cl
ENDBRANCH   1   5
TORSDOF 2
ENDMDL
MODEL 3
REMARK VINA RESULT:      -3.5      1.906      2.402
REMARK  2 active torsions:
REMARK  status: ('A' for Active; 'I' for Inactive)
REMARK    1  A    between atoms: O_1  and  C_2 
REMARK    2  A    between atoms: C_2  and  C_3 
ROOT
HETATM    1  C   LIG     1      16.236  37.637  23.878  1.00  0.00     0.153 C 
HETATM    2  O   LIG     1      16.695  38.020  24.987  1.00  0.00    -0.649 OA
ENDROOT
BRANCH   1   3
HETATM    3  O   LIG     1      15.013  38.121  23.425  1.00  0.00    -0.776 OA
HETATM    4  H   LIG     1      14.279  37.486  23.135  1.00  0.00     0.167 HD
ENDBRANCH   1   3
BRANCH   1   5
HETATM    5  C   LIG     1      16.979  36.626  23.071  1.00  0.00     0.224 C 
HETATM    6 CL   LIG     1      17.173  35.131  24.016  1.00  0.00    -0.119 Cl
ENDBRANCH   1   5
TORSDOF 2
ENDMDL
MODEL 4
REMARK VINA RESULT:      -3.3      2.170      2.254
REMARK  2 active torsions:
REMARK  status: ('A' for Active; 'I' for Inactive)
REMARK    1  A    between atoms: O_1  and  C_2 
REMARK    2  A    between atoms: C_2  and  C_3 
ROOT
HETATM    1  C   LIG     1      17.038  37.350  24.773  1.00  0.00     0.153 C 
HETATM    2  O   LIG     1      17.039  38.570  25.089  1.00  0.00    -0.649 OA
ENDROOT
BRANCH   1   3
HETATM    3  O   LIG     1      17.225  36.378  25.751  1.00  0.00    -0.776 OA
HETATM    4  H   LIG     1      16.564  35.617  25.860  1.00  0.00     0.167 HD
ENDBRANCH   1   3
BRANCH   1   5
HETATM    5  C   LIG     1      16.888  36.948  23.345  1.00  0.00     0.224 C 
HETATM    6 CL   LIG     1      17.062  35.183  23.199  1.00  0.00    -0.119 Cl
ENDBRANCH   1   5
TORSDOF 2
ENDMDL
MODEL 5
REMARK VINA RESULT:      -3.2      6.072      6.267
REMARK  2 active torsions:
REMARK  status: ('A' for Active; 'I' for Inactive)
REMARK    1  A    between atoms: O_1  and  C_2 
REMARK    2  A    between atoms: C_2  and  C_3 
ROOT
HETATM    1  C   LIG     1      19.525  38.896  19.493  1.00  0.00     0.153 C 
HETATM    2  O   LIG     1      18.994  37.924  18.892  1.00  0.00    -0.649 OA
ENDROOT
BRANCH   1   3
HETATM    3  O   LIG     1      20.705  39.454  19.009  1.00  0.00    -0.776 OA
HETATM    4  H   LIG     1      20.683  40.188  18.311  1.00  0.00     0.167 HD
ENDBRANCH   1   3
BRANCH   1   5
HETATM    5  C   LIG     1      18.920  39.417  20.752  1.00  0.00     0.224 C 
HETATM    6 CL   LIG     1      17.847  38.185  21.455  1.00  0.00    -0.119 Cl
ENDBRANCH   1   5
TORSDOF 2
ENDMDL
MODEL 6
REMARK VINA RESULT:      -3.2     11.961     12.047
REMARK  2 active torsions:
REMARK  status: ('A' for Active; 'I' for Inactive)
REMARK    1  A    between atoms: O_1  and  C_2 
REMARK    2  A    between atoms: C_2  and  C_3 
ROOT
HETATM    1  C   LIG     1      26.927  37.746  18.594  1.00  0.00     0.153 C 
HETATM    2  O   LIG     1      26.007  38.008  17.773  1.00  0.00    -0.649 OA
ENDROOT
BRANCH   1   3
HETATM    3  O   LIG     1      26.793  36.674  19.471  1.00  0.00    -0.776 OA
HETATM    4  H   LIG     1      26.312  35.828  19.187  1.00  0.00     0.167 HD
ENDBRANCH   1   3
BRANCH   1   5
HETATM    5  C   LIG     1      28.139  38.613  18.661  1.00  0.00     0.224 C 
HETATM    6 CL   LIG     1      27.834  39.983  19.754  1.00  0.00    -0.119 Cl
ENDBRANCH   1   5
TORSDOF 2
ENDMDL
MODEL 7
REMARK VINA RESULT:      -3.1      2.479      2.645
REMARK  2 active torsions:
REMARK  status: ('A' for Active; 'I' for Inactive)
REMARK    1  A    between atoms: O_1  and  C_2 
REMARK    2  A    between atoms: C_2  and  C_3 
ROOT
HETATM    1  C   LIG     1      17.405  37.678  25.178  1.00  0.00     0.153 C 
HETATM    2  O   LIG     1      18.057  36.758  25.742  1.00  0.00    -0.649 OA
ENDROOT
BRANCH   1   3
HETATM    3  O   LIG     1      17.245  38.907  25.812  1.00  0.00    -0.776 OA
HETATM    4  H   LIG     1      17.899  39.664  25.649  1.00  0.00     0.167 HD
ENDBRANCH   1   3
BRANCH   1   5
HETATM    5  C   LIG     1      16.762  37.436  23.855  1.00  0.00     0.224 C 
HETATM    6 CL   LIG     1      17.425  38.566  22.651  1.00  0.00    -0.119 Cl
ENDBRANCH   1   5
TORSDOF 2
ENDMDL
MODEL 8
REMARK VINA RESULT:      -3.1      8.684      9.019
REMARK  2 active torsions:
REMARK  status: ('A' for Active; 'I' for Inactive)
REMARK    1  A    between atoms: O_1  and  C_2 
REMARK    2  A    between atoms: C_2  and  C_3 
ROOT
HETATM    1  C   LIG     1      14.906  32.397  18.131  1.00  0.00     0.153 C 
HETATM    2  O   LIG     1      15.682  32.765  17.209  1.00  0.00    -0.649 OA
ENDROOT
BRANCH   1   3
HETATM    3  O   LIG     1      13.590  32.054  17.838  1.00  0.00    -0.776 OA
HETATM    4  H   LIG     1      12.832  32.704  18.015  1.00  0.00     0.167 HD
ENDBRANCH   1   3
BRANCH   1   5
HETATM    5  C   LIG     1      15.381  32.377  19.544  1.00  0.00     0.224 C 
HETATM    6 CL   LIG     1      14.892  30.851  20.318  1.00  0.00    -0.119 Cl
ENDBRANCH   1   5
TORSDOF 2
ENDMDL
MODEL 9
REMARK VINA RESULT:      -3.1      5.161      5.583
REMARK  2 active torsions:
REMARK  status: ('A' for Active; 'I' for Inactive)
REMARK    1  A    between atoms: O_1  and  C_2 
REMARK    2  A    between atoms: C_2  and  C_3 
ROOT
HETATM    1  C   LIG     1      15.567  34.418  21.098  1.00  0.00     0.153 C 
HETATM    2  O   LIG     1      15.873  33.904  19.989  1.00  0.00    -0.649 OA
ENDROOT
BRANCH   1   3
HETATM    3  O   LIG     1      14.252  34.365  21.551  1.00  0.00    -0.776 OA
HETATM    4  H   LIG     1      13.534  33.900  21.008  1.00  0.00     0.167 HD
ENDBRANCH   1   3
BRANCH   1   5
HETATM    5  C   LIG     1      16.601  35.128  21.905  1.00  0.00     0.224 C 
HETATM    6 CL   LIG     1      17.582  36.164  20.842  1.00  0.00    -0.119 Cl
ENDBRANCH   1   5
TORSDOF 2
ENDMDL
MODEL 10
REMARK VINA RESULT:      -3.0      2.954      3.077
REMARK  2 active torsions:
REMARK  status: ('A' for Active; 'I' for Inactive)
REMARK    1  A    between atoms: O_1  and  C_2 
REMARK    2  A    between atoms: C_2  and  C_3 
ROOT
HETATM    1  C   LIG     1      16.859  37.216  23.992  1.00  0.00     0.153 C 
HETATM    2  O   LIG     1      16.380  38.201  24.614  1.00  0.00    -0.649 OA
ENDROOT
BRANCH   1   3
HETATM    3  O   LIG     1      17.379  36.134  24.695  1.00  0.00    -0.776 OA
HETATM    4  H   LIG     1      17.427  35.214  24.272  1.00  0.00     0.167 HD
ENDBRANCH   1   3
BRANCH   1   5
HETATM    5  C   LIG     1      16.916  37.229  22.501  1.00  0.00     0.224 C 
HETATM    6 CL   LIG     1      17.648  38.752  21.944  1.00  0.00    -0.119 Cl
ENDBRANCH   1   5
TORSDOF 2
ENDMDL
MODEL 11
REMARK VINA RESULT:      -3.0      9.846     10.258
REMARK  2 active torsions:
REMARK  status: ('A' for Active; 'I' for Inactive)
REMARK    1  A    between atoms: O_1  and  C_2 
REMARK    2  A    between atoms: C_2  and  C_3 
ROOT
HETATM    1  C   LIG     1      14.678  32.320  17.723  1.00  0.00     0.153 C 
HETATM    2  O   LIG     1      15.538  33.217  17.930  1.00  0.00    -0.649 OA
ENDROOT
BRANCH   1   3
HETATM    3  O   LIG     1      13.953  31.792  18.787  1.00  0.00    -0.776 OA
HETATM    4  H   LIG     1      14.400  31.602  19.677  1.00  0.00     0.167 HD
ENDBRANCH   1   3
BRANCH   1   5
HETATM    5  C   LIG     1      14.468  31.788  16.346  1.00  0.00     0.224 C 
HETATM    6 CL   LIG     1      13.015  30.762  16.315  1.00  0.00    -0.119 Cl
ENDBRANCH   1   5
TORSDOF 2
ENDMDL
MODEL 12
REMARK VINA RESULT:      -2.9      3.504      4.107
REMARK  2 active torsions:
REMARK  status: ('A' for Active; 'I' for Inactive)
REMARK    1  A    between atoms: O_1  and  C_2 
REMARK    2  A    between atoms: C_2  and  C_3 
ROOT
HETATM    1  C   LIG     1      15.436  36.119  21.804  1.00  0.00     0.153 C 
HETATM    2  O   LIG     1      15.479  37.248  22.364  1.00  0.00    -0.649 OA
ENDROOT
BRANCH   1   3
HETATM    3  O   LIG     1      14.283  35.715  21.138  1.00  0.00    -0.776 OA
HETATM    4  H   LIG     1      13.807  36.340  20.498  1.00  0.00     0.167 HD
ENDBRANCH   1   3
BRANCH   1   5
HETATM    5  C   LIG     1      16.603  35.195  21.895  1.00  0.00     0.224 C 
HETATM    6 CL   LIG     1      17.120  35.049  23.591  1.00  0.00    -0.119 Cl
ENDBRANCH   1   5
TORSDOF 2
ENDMDL
MODEL 13
REMARK VINA RESULT:      -2.9      7.907      8.176
REMARK  2 active torsions:
REMARK  status: ('A' for Active; 'I' for Inactive)
REMARK    1  A    between atoms: O_1  and  C_2 
REMARK    2  A    between atoms: C_2  and  C_3 
ROOT
HETATM    1  C   LIG     1      18.613  39.521  17.170  1.00  0.00     0.153 C 
HETATM    2  O   LIG     1      18.469  38.918  16.072  1.00  0.00    -0.649 OA
ENDROOT
BRANCH   1   3
HETATM    3  O   LIG     1      18.141  40.821  17.317  1.00  0.00    -0.776 OA
HETATM    4  H   LIG     1      17.270  41.006  17.801  1.00  0.00     0.167 HD
ENDBRANCH   1   3
BRANCH   1   5
HETATM    5  C   LIG     1      19.333  38.860  18.297  1.00  0.00     0.224 C 
HETATM    6 CL   LIG     1      18.694  39.456  19.846  1.00  0.00    -0.119 Cl
ENDBRANCH   1   5
TORSDOF 2
ENDMDL
MODEL 14
REMARK VINA RESULT:      -2.9      5.697      5.983
REMARK  2 active torsions:
REMARK  status: ('A' for Active; 'I' for Inactive)
REMARK    1  A    between atoms: O_1  and  C_2 
REMARK    2  A    between atoms: C_2  and  C_3 
ROOT
HETATM    1  C   LIG     1      18.327  36.956  20.117  1.00  0.00     0.153 C 
HETATM    2  O   LIG     1      18.544  36.557  18.942  1.00  0.00    -0.649 OA
ENDROOT
BRANCH   1   3
HETATM    3  O   LIG     1      17.636  36.144  21.012  1.00  0.00    -0.776 OA
HETATM    4  H   LIG     1      17.961  36.028  21.965  1.00  0.00     0.167 HD
ENDBRANCH   1   3
BRANCH   1   5
HETATM    5  C   LIG     1      18.765  38.319  20.538  1.00  0.00     0.224 C 
HETATM    6 CL   LIG     1      20.243  38.770  19.656  1.00  0.00    -0.119 Cl
ENDBRANCH   1   5
TORSDOF 2
ENDMDL
MODEL 15
REMARK VINA RESULT:      -2.8     13.858     14.351
REMARK  2 active torsions:
REMARK  status: ('A' for Active; 'I' for Inactive)
REMARK    1  A    between atoms: O_1  and  C_2 
REMARK    2  A    between atoms: C_2  and  C_3 
ROOT
HETATM    1  C   LIG     1      13.549  29.473  14.388  1.00  0.00     0.153 C 
HETATM    2  O   LIG     1      13.198  30.338  15.235  1.00  0.00    -0.649 OA
ENDROOT
BRANCH   1   3
HETATM    3  O   LIG     1      12.604  28.611  13.840  1.00  0.00    -0.776 OA
HETATM    4  H   LIG     1      11.612  28.792  13.947  1.00  0.00     0.167 HD
ENDBRANCH   1   3
BRANCH   1   5
HETATM    5  C   LIG     1      14.985  29.338  14.009  1.00  0.00     0.224 C 
HETATM    6 CL   LIG     1      15.366  27.627  13.708  1.00  0.00    -0.119 Cl
ENDBRANCH   1   5
TORSDOF 2
ENDMDL
MODEL 16
REMARK VINA RESULT:      -2.8      2.512      2.969
REMARK  2 active torsions:
REMARK  status: ('A' for Active; 'I' for Inactive)
REMARK    1  A    between atoms: O_1  and  C_2 
REMARK    2  A    between atoms: C_2  and  C_3 
ROOT
HETATM    1  C   LIG     1      17.677  36.077  25.846  1.00  0.00     0.153 C 
HETATM    2  O   LIG     1      18.491  36.439  26.737  1.00  0.00    -0.649 OA
ENDROOT
BRANCH   1   3
HETATM    3  O   LIG     1      17.335  34.734  25.718  1.00  0.00    -0.776 OA
HETATM    4  H   LIG     1      17.821  34.135  25.060  1.00  0.00     0.167 HD
ENDBRANCH   1   3
BRANCH   1   5
HETATM    5  C   LIG     1      17.115  37.079  24.895  1.00  0.00     0.224 C 
HETATM    6 CL   LIG     1      18.386  38.229  24.417  1.00  0.00    -0.119 Cl
ENDBRANCH   1   5
TORSDOF 2
ENDMDL
MODEL 17
REMARK VINA RESULT:      -2.8      9.040      9.556
REMARK  2 active torsions:
REMARK  status: ('A' for Active; 'I' for Inactive)
REMARK    1  A    between atoms: O_1  and  C_2 
REMARK    2  A    between atoms: C_2  and  C_3 
ROOT
HETATM    1  C   LIG     1      15.322  33.438  16.659  1.00  0.00     0.153 C 
HETATM    2  O   LIG     1      15.562  34.584  17.125  1.00  0.00    -0.649 OA
ENDROOT
BRANCH   1   3
HETATM    3  O   LIG     1      15.705  33.121  15.359  1.00  0.00    -0.776 OA
HETATM    4  H   LIG     1      15.515  33.756  14.592  1.00  0.00     0.167 HD
ENDBRANCH   1   3
BRANCH   1   5
HETATM    5  C   LIG     1      14.583  32.436  17.480  1.00  0.00     0.224 C 
HETATM    6 CL   LIG     1      15.353  32.287  19.077  1.00  0.00    -0.119 Cl
ENDBRANCH   1   5
TORSDOF 2
ENDMDL
MODEL 18
REMARK VINA RESULT:      -2.7     13.328     13.611
REMARK  2 active torsions:
REMARK  status: ('A' for Active; 'I' for Inactive)
REMARK    1  A    between atoms: O_1  and  C_2 
REMARK    2  A    between atoms: C_2  and  C_3 
ROOT
HETATM    1  C   LIG     1      14.178  29.652  14.222  1.00  0.00     0.153 C 
HETATM    2  O   LIG     1      13.110  28.983  14.196  1.00  0.00    -0.649 OA
ENDROOT
BRANCH   1   3
HETATM    3  O   LIG     1      15.193  29.378  13.310  1.00  0.00    -0.776 OA
HETATM    4  H   LIG     1      16.160  29.329  13.609  1.00  0.00     0.167 HD
ENDBRANCH   1   3
BRANCH   1   5
HETATM    5  C   LIG     1      14.377  30.703  15.261  1.00  0.00     0.224 C 
HETATM    6 CL   LIG     1      12.923  30.821  16.280  1.00  0.00    -0.119 Cl
ENDBRANCH   1   5
TORSDOF 2
ENDMDL
MODEL 19
REMARK VINA RESULT:      -2.7      3.657      3.784
REMARK  2 active torsions:
REMARK  status: ('A' for Active; 'I' for Inactive)
REMARK    1  A    between atoms: O_1  and  C_2 
REMARK    2  A    between atoms: C_2  and  C_3 
ROOT
HETATM    1  C   LIG     1      17.522  38.912  22.222  1.00  0.00     0.153 C 
HETATM    2  O   LIG     1      16.598  39.375  22.943  1.00  0.00    -0.649 OA
ENDROOT
BRANCH   1   3
HETATM    3  O   LIG     1      18.608  39.713  21.882  1.00  0.00    -0.776 OA
HETATM    4  H   LIG     1      18.897  40.478  22.480  1.00  0.00     0.167 HD
ENDBRANCH   1   3
BRANCH   1   5
HETATM    5  C   LIG     1      17.430  37.521  21.690  1.00  0.00     0.224 C 
HETATM    6 CL   LIG     1      15.887  36.790  22.191  1.00  0.00    -0.119 Cl
ENDBRANCH   1   5
TORSDOF 2
ENDMDL
MODEL 20
REMARK VINA RESULT:      -2.7      6.552      6.834
REMARK  2 active torsions:
REMARK  status: ('A' for Active; 'I' for Inactive)
REMARK    1  A    between atoms: O_1  and  C_2 
REMARK    2  A    between atoms: C_2  and  C_3 
ROOT
HETATM    1  C   LIG     1      18.855  37.721  19.853  1.00  0.00     0.153 C 
HETATM    2  O   LIG     1      18.296  37.895  20.969  1.00  0.00    -0.649 OA
ENDROOT
BRANCH   1   3
HETATM    3  O   LIG     1      18.800  36.475  19.234  1.00  0.00    -0.776 OA
HETATM    4  H   LIG     1      18.154  35.764  19.555  1.00  0.00     0.167 HD
ENDBRANCH   1   3
BRANCH   1   5
HETATM    5  C   LIG     1      19.618  38.833  19.216  1.00  0.00     0.224 C 
HETATM    6 CL   LIG     1      18.879  39.246  17.651  1.00  0.00    -0.119 Cl
ENDBRANCH   1   5
TORSDOF 2
ENDMDL
