REMARK  2 active torsions:
REMARK  status: ('A' for Active; 'I' for Inactive)
REMARK    1  A    between atoms: O_1  and  C_2 
REMARK    2  A    between atoms: C_2  and  C_3 
ROOT
HETATM    1  C   LIG     1      -0.488   0.294  -0.005  1.00  0.00     0.153 C 
HETATM    2  O   LIG     1      -0.828   1.500  -0.139  1.00  0.00    -0.649 OA
ENDROOT
BRANCH   1   3
HETATM    3  O   LIG     1      -1.391  -0.631   0.510  1.00  0.00    -0.776 OA
HETATM    4  H   LIG     1      -2.331  -0.352   0.766  1.00  0.00     0.167 HD
ENDBRANCH   1   3
BRANCH   1   5
HETATM    5  C   LIG     1       0.898  -0.135  -0.351  1.00  0.00     0.224 C 
HETATM    6 CL   LIG     1       1.949   0.030   1.075  1.00  0.00    -0.119 Cl
ENDBRANCH   1   5
TORSDOF 2
