MODEL 1
REMARK VINA RESULT:      -3.4      0.000      0.000
REMARK  1 active torsions:
REMARK  status: ('A' for Active; 'I' for Inactive)
REMARK    1  A    between atoms: C_2  and  O_3 
ROOT
HETATM    1  C   LIG     1      18.284  36.688  26.331  1.00  0.00     0.126 C 
HETATM    2  C   LIG     1      17.458  37.382  25.303  1.00  0.00     0.254 C 
HETATM    3  O   LIG     1      17.115  38.582  25.486  1.00  0.00    -0.266 OA
ENDROOT
BRANCH   2   4
HETATM    4  O   LIG     1      17.071  36.697  24.148  1.00  0.00    -0.327 OA
HETATM    5  C   LIG     1      16.504  37.354  23.021  1.00  0.00     0.213 C 
ENDBRANCH   2   4
TORSDOF 1
ENDMDL
MODEL 2
REMARK VINA RESULT:      -3.4      4.818      5.781
REMARK  1 active torsions:
REMARK  status: ('A' for Active; 'I' for Inactive)
REMARK    1  A    between atoms: C_2  and  O_3 
ROOT
HETATM    1  C   LIG     1      19.233  37.434  19.519  1.00  0.00     0.126 C 
HETATM    2  C   LIG     1      19.556  38.860  19.807  1.00  0.00     0.254 C 
HETATM    3  O   LIG     1      20.542  39.402  19.236  1.00  0.00    -0.266 OA
ENDROOT
BRANCH   2   4
HETATM    4  O   LIG     1      18.766  39.582  20.706  1.00  0.00    -0.327 OA
HETATM    5  C   LIG     1      18.458  39.103  22.010  1.00  0.00     0.213 C 
ENDBRANCH   2   4
TORSDOF 1
ENDMDL
MODEL 3
REMARK VINA RESULT:      -3.3      6.306      6.987
REMARK  1 active torsions:
REMARK  status: ('A' for Active; 'I' for Inactive)
REMARK    1  A    between atoms: C_2  and  O_3 
ROOT
HETATM    1  C   LIG     1      19.010  37.522  19.319  1.00  0.00     0.126 C 
HETATM    2  C   LIG     1      19.425  38.906  18.953  1.00  0.00     0.254 C 
HETATM    3  O   LIG     1      20.499  39.377  19.418  1.00  0.00    -0.266 OA
ENDROOT
BRANCH   2   4
HETATM    4  O   LIG     1      18.621  39.668  18.100  1.00  0.00    -0.327 OA
HETATM    5  C   LIG     1      18.764  39.639  16.685  1.00  0.00     0.213 C 
ENDBRANCH   2   4
TORSDOF 1
ENDMDL
MODEL 4
REMARK VINA RESULT:      -3.3      1.660      1.941
REMARK  1 active torsions:
REMARK  status: ('A' for Active; 'I' for Inactive)
REMARK    1  A    between atoms: C_2  and  O_3 
ROOT
HETATM    1  C   LIG     1      17.850  34.758  26.109  1.00  0.00     0.126 C 
HETATM    2  C   LIG     1      17.937  36.243  26.019  1.00  0.00     0.254 C 
HETATM    3  O   LIG     1      18.760  36.863  26.745  1.00  0.00    -0.266 OA
ENDROOT
BRANCH   2   4
HETATM    4  O   LIG     1      17.105  36.933  25.132  1.00  0.00    -0.327 OA
HETATM    5  C   LIG     1      17.343  38.283  24.752  1.00  0.00     0.213 C 
ENDBRANCH   2   4
TORSDOF 1
ENDMDL
MODEL 5
REMARK VINA RESULT:      -3.2      1.485      3.204
REMARK  1 active torsions:
REMARK  status: ('A' for Active; 'I' for Inactive)
REMARK    1  A    between atoms: C_2  and  O_3 
ROOT
HETATM    1  C   LIG     1      17.174  38.852  22.318  1.00  0.00     0.126 C 
HETATM    2  C   LIG     1      16.321  37.865  23.037  1.00  0.00     0.254 C 
HETATM    3  O   LIG     1      15.733  36.958  22.386  1.00  0.00    -0.266 OA
ENDROOT
BRANCH   2   4
HETATM    4  O   LIG     1      16.180  37.953  24.426  1.00  0.00    -0.327 OA
HETATM    5  C   LIG     1      17.269  37.766  25.320  1.00  0.00     0.213 C 
ENDBRANCH   2   4
TORSDOF 1
ENDMDL
MODEL 6
REMARK VINA RESULT:      -3.2      0.719      2.508
REMARK  1 active torsions:
REMARK  status: ('A' for Active; 'I' for Inactive)
REMARK    1  A    between atoms: C_2  and  O_3 
ROOT
HETATM    1  C   LIG     1      16.532  37.530  23.379  1.00  0.00     0.126 C 
HETATM    2  C   LIG     1      17.060  37.558  24.772  1.00  0.00     0.254 C 
HETATM    3  O   LIG     1      17.091  38.648  25.405  1.00  0.00    -0.266 OA
ENDROOT
BRANCH   2   4
HETATM    4  O   LIG     1      17.517  36.376  25.363  1.00  0.00    -0.327 OA
HETATM    5  C   LIG     1      18.275  36.365  26.567  1.00  0.00     0.213 C 
ENDBRANCH   2   4
TORSDOF 1
ENDMDL
MODEL 7
REMARK VINA RESULT:      -3.1      1.874      2.478
REMARK  1 active torsions:
REMARK  status: ('A' for Active; 'I' for Inactive)
REMARK    1  A    between atoms: C_2  and  O_3 
ROOT
HETATM    1  C   LIG     1      17.149  38.384  22.402  1.00  0.00     0.126 C 
HETATM    2  C   LIG     1      16.778  37.480  23.528  1.00  0.00     0.254 C 
HETATM    3  O   LIG     1      16.262  37.965  24.572  1.00  0.00    -0.266 OA
ENDROOT
BRANCH   2   4
HETATM    4  O   LIG     1      17.006  36.105  23.416  1.00  0.00    -0.327 OA
HETATM    5  C   LIG     1      16.922  35.413  22.177  1.00  0.00     0.213 C 
ENDBRANCH   2   4
TORSDOF 1
ENDMDL
MODEL 8
REMARK VINA RESULT:      -3.0      8.055      9.077
REMARK  1 active torsions:
REMARK  status: ('A' for Active; 'I' for Inactive)
REMARK    1  A    between atoms: C_2  and  O_3 
ROOT
HETATM    1  C   LIG     1      15.327  32.254  19.850  1.00  0.00     0.126 C 
HETATM    2  C   LIG     1      14.935  32.229  18.413  1.00  0.00     0.254 C 
HETATM    3  O   LIG     1      15.557  32.949  17.585  1.00  0.00    -0.266 OA
ENDROOT
BRANCH   2   4
HETATM    4  O   LIG     1      13.882  31.409  17.996  1.00  0.00    -0.327 OA
HETATM    5  C   LIG     1      13.696  31.032  16.637  1.00  0.00     0.213 C 
ENDBRANCH   2   4
TORSDOF 1
ENDMDL
MODEL 9
REMARK VINA RESULT:      -3.0      2.435      3.003
REMARK  1 active torsions:
REMARK  status: ('A' for Active; 'I' for Inactive)
REMARK    1  A    between atoms: C_2  and  O_3 
ROOT
HETATM    1  C   LIG     1      16.518  36.530  22.396  1.00  0.00     0.126 C 
HETATM    2  C   LIG     1      16.421  37.889  23.001  1.00  0.00     0.254 C 
HETATM    3  O   LIG     1      15.903  38.027  24.143  1.00  0.00    -0.266 OA
ENDROOT
BRANCH   2   4
HETATM    4  O   LIG     1      16.903  38.997  22.296  1.00  0.00    -0.327 OA
HETATM    5  C   LIG     1      18.279  39.162  21.976  1.00  0.00     0.213 C 
ENDBRANCH   2   4
TORSDOF 1
ENDMDL
MODEL 10
REMARK VINA RESULT:      -2.9      4.213      5.482
REMARK  1 active torsions:
REMARK  status: ('A' for Active; 'I' for Inactive)
REMARK    1  A    between atoms: C_2  and  O_3 
ROOT
HETATM    1  C   LIG     1      20.013  38.529  19.574  1.00  0.00     0.126 C 
HETATM    2  C   LIG     1      18.885  37.593  19.845  1.00  0.00     0.254 C 
HETATM    3  O   LIG     1      18.617  36.684  19.012  1.00  0.00    -0.266 OA
ENDROOT
BRANCH   2   4
HETATM    4  O   LIG     1      18.136  37.731  21.017  1.00  0.00    -0.327 OA
HETATM    5  C   LIG     1      17.959  38.983  21.670  1.00  0.00     0.213 C 
ENDBRANCH   2   4
TORSDOF 1
ENDMDL
MODEL 11
REMARK VINA RESULT:      -2.9      8.093      8.924
REMARK  1 active torsions:
REMARK  status: ('A' for Active; 'I' for Inactive)
REMARK    1  A    between atoms: C_2  and  O_3 
ROOT
HETATM    1  C   LIG     1      15.320  32.230  19.855  1.00  0.00     0.126 C 
HETATM    2  C   LIG     1      14.910  32.191  18.423  1.00  0.00     0.254 C 
HETATM    3  O   LIG     1      13.946  31.456  18.071  1.00  0.00    -0.266 OA
ENDROOT
BRANCH   2   4
HETATM    4  O   LIG     1      15.596  32.966  17.484  1.00  0.00    -0.327 OA
HETATM    5  C   LIG     1      15.516  32.724  16.084  1.00  0.00     0.213 C 
ENDBRANCH   2   4
TORSDOF 1
ENDMDL
MODEL 12
REMARK VINA RESULT:      -2.9      8.440      9.789
REMARK  1 active torsions:
REMARK  status: ('A' for Active; 'I' for Inactive)
REMARK    1  A    between atoms: C_2  and  O_3 
ROOT
HETATM    1  C   LIG     1      14.949  32.306  16.553  1.00  0.00     0.126 C 
HETATM    2  C   LIG     1      13.898  31.748  17.450  1.00  0.00     0.254 C 
HETATM    3  O   LIG     1      12.729  31.578  17.010  1.00  0.00    -0.266 OA
ENDROOT
BRANCH   2   4
HETATM    4  O   LIG     1      14.219  31.420  18.771  1.00  0.00    -0.327 OA
HETATM    5  C   LIG     1      15.273  32.055  19.484  1.00  0.00     0.213 C 
ENDBRANCH   2   4
TORSDOF 1
ENDMDL
MODEL 13
REMARK VINA RESULT:      -2.9      4.368      5.195
REMARK  1 active torsions:
REMARK  status: ('A' for Active; 'I' for Inactive)
REMARK    1  A    between atoms: C_2  and  O_3 
ROOT
HETATM    1  C   LIG     1      17.305  35.947  20.991  1.00  0.00     0.126 C 
HETATM    2  C   LIG     1      18.204  36.916  20.304  1.00  0.00     0.254 C 
HETATM    3  O   LIG     1      18.760  36.590  19.220  1.00  0.00    -0.266 OA
ENDROOT
BRANCH   2   4
HETATM    4  O   LIG     1      18.424  38.176  20.869  1.00  0.00    -0.327 OA
HETATM    5  C   LIG     1      19.386  39.089  20.353  1.00  0.00     0.213 C 
ENDBRANCH   2   4
TORSDOF 1
ENDMDL
MODEL 14
REMARK VINA RESULT:      -2.9      9.408     10.553
REMARK  1 active torsions:
REMARK  status: ('A' for Active; 'I' for Inactive)
REMARK    1  A    between atoms: C_2  and  O_3 
ROOT
HETATM    1  C   LIG     1      15.679  31.666  14.852  1.00  0.00     0.126 C 
HETATM    2  C   LIG     1      16.629  32.701  15.349  1.00  0.00     0.254 C 
HETATM    3  O   LIG     1      17.871  32.506  15.249  1.00  0.00    -0.266 OA
ENDROOT
BRANCH   2   4
HETATM    4  O   LIG     1      16.135  33.876  15.923  1.00  0.00    -0.327 OA
HETATM    5  C   LIG     1      15.033  33.885  16.822  1.00  0.00     0.213 C 
ENDBRANCH   2   4
TORSDOF 1
ENDMDL
MODEL 15
REMARK VINA RESULT:      -2.8     10.104     10.518
REMARK  1 active torsions:
REMARK  status: ('A' for Active; 'I' for Inactive)
REMARK    1  A    between atoms: C_2  and  O_3 
ROOT
HETATM    1  C   LIG     1      13.024  30.774  16.068  1.00  0.00     0.126 C 
HETATM    2  C   LIG     1      13.841  31.543  17.048  1.00  0.00     0.254 C 
HETATM    3  O   LIG     1      13.925  31.141  18.241  1.00  0.00    -0.266 OA
ENDROOT
BRANCH   2   4
HETATM    4  O   LIG     1      14.506  32.702  16.637  1.00  0.00    -0.327 OA
HETATM    5  C   LIG     1      15.738  32.668  15.929  1.00  0.00     0.213 C 
ENDBRANCH   2   4
TORSDOF 1
ENDMDL
MODEL 16
REMARK VINA RESULT:      -2.8      7.900      9.150
REMARK  1 active torsions:
REMARK  status: ('A' for Active; 'I' for Inactive)
REMARK    1  A    between atoms: C_2  and  O_3 
ROOT
HETATM    1  C   LIG     1      13.895  31.865  17.022  1.00  0.00     0.126 C 
HETATM    2  C   LIG     1      14.873  32.961  17.272  1.00  0.00     0.254 C 
HETATM    3  O   LIG     1      15.107  33.805  16.365  1.00  0.00    -0.266 OA
ENDROOT
BRANCH   2   4
HETATM    4  O   LIG     1      15.523  33.041  18.507  1.00  0.00    -0.327 OA
HETATM    5  C   LIG     1      15.299  32.103  19.553  1.00  0.00     0.213 C 
ENDBRANCH   2   4
TORSDOF 1
ENDMDL
MODEL 17
REMARK VINA RESULT:      -2.8      9.304      9.868
REMARK  1 active torsions:
REMARK  status: ('A' for Active; 'I' for Inactive)
REMARK    1  A    between atoms: C_2  and  O_3 
ROOT
HETATM    1  C   LIG     1      14.085  32.428  17.117  1.00  0.00     0.126 C 
HETATM    2  C   LIG     1      15.176  33.326  16.643  1.00  0.00     0.254 C 
HETATM    3  O   LIG     1      15.012  34.576  16.675  1.00  0.00    -0.266 OA
ENDROOT
BRANCH   2   4
HETATM    4  O   LIG     1      16.369  32.774  16.167  1.00  0.00    -0.327 OA
HETATM    5  C   LIG     1      16.560  32.424  14.802  1.00  0.00     0.213 C 
ENDBRANCH   2   4
TORSDOF 1
ENDMDL
MODEL 18
REMARK VINA RESULT:      -2.7      9.486      9.906
REMARK  1 active torsions:
REMARK  status: ('A' for Active; 'I' for Inactive)
REMARK    1  A    between atoms: C_2  and  O_3 
ROOT
HETATM    1  C   LIG     1      16.083  32.344  15.449  1.00  0.00     0.126 C 
HETATM    2  C   LIG     1      15.413  33.339  16.334  1.00  0.00     0.254 C 
HETATM    3  O   LIG     1      15.846  34.523  16.380  1.00  0.00    -0.266 OA
ENDROOT
BRANCH   2   4
HETATM    4  O   LIG     1      14.313  32.951  17.105  1.00  0.00    -0.327 OA
HETATM    5  C   LIG     1      13.800  31.624  17.094  1.00  0.00     0.213 C 
ENDBRANCH   2   4
TORSDOF 1
ENDMDL
MODEL 19
REMARK VINA RESULT:      -2.7     12.901     13.319
REMARK  1 active torsions:
REMARK  status: ('A' for Active; 'I' for Inactive)
REMARK    1  A    between atoms: C_2  and  O_3 
ROOT
HETATM    1  C   LIG     1      14.044  30.306  14.925  1.00  0.00     0.126 C 
HETATM    2  C   LIG     1      15.123  29.767  14.049  1.00  0.00     0.254 C 
HETATM    3  O   LIG     1      15.244  28.519  13.906  1.00  0.00    -0.266 OA
ENDROOT
BRANCH   2   4
HETATM    4  O   LIG     1      15.989  30.648  13.395  1.00  0.00    -0.327 OA
HETATM    5  C   LIG     1      16.022  32.041  13.677  1.00  0.00     0.213 C 
ENDBRANCH   2   4
TORSDOF 1
ENDMDL
MODEL 20
REMARK VINA RESULT:      -2.7      3.418      4.200
REMARK  1 active torsions:
REMARK  status: ('A' for Active; 'I' for Inactive)
REMARK    1  A    between atoms: C_2  and  O_3 
ROOT
HETATM    1  C   LIG     1      19.054  39.303  20.139  1.00  0.00     0.126 C 
HETATM    2  C   LIG     1      18.298  38.646  21.242  1.00  0.00     0.254 C 
HETATM    3  O   LIG     1      18.087  39.275  22.314  1.00  0.00    -0.266 OA
ENDROOT
BRANCH   2   4
HETATM    4  O   LIG     1      17.832  37.338  21.078  1.00  0.00    -0.327 OA
HETATM    5  C   LIG     1      16.781  36.795  21.868  1.00  0.00     0.213 C 
ENDBRANCH   2   4
TORSDOF 1
ENDMDL
