REMARK  1 active torsions:
REMARK  status: ('A' for Active; 'I' for Inactive)
REMARK    1  A    between atoms: C_2  and  O_3 
ROOT
HETATM    1  C   LIG     1      -1.890   0.158  -0.088  1.00  0.00     0.126 C 
HETATM    2  C   LIG     1      -0.464  -0.217  -0.304  1.00  0.00     0.254 C 
HETATM    3  O   LIG     1      -0.170  -1.062  -1.193  1.00  0.00    -0.266 OA
ENDROOT
BRANCH   2   4
HETATM    4  O   LIG     1       0.533   0.370   0.481  1.00  0.00    -0.327 OA
HETATM    5  C   LIG     1       1.912   0.057   0.328  1.00  0.00     0.213 C 
ENDBRANCH   2   4
TORSDOF 1
