REMARK  2 active torsions:
REMARK  status: ('A' for Active; 'I' for Inactive)
REMARK    1  A    between atoms: C_2  and  C_4 
REMARK    2  A    between atoms: C_4  and  O_5 
ROOT
HETATM    1  C   LIG     1       1.304  -0.283   0.010  1.00  0.00     0.143 C 
HETATM    2  O   LIG     1       1.983  -1.119   0.665  1.00  0.00    -0.650 OA
ENDROOT
BRANCH   1   3
HETATM    3  C   LIG     1      -0.072   0.100   0.494  1.00  0.00     0.075 C 
HETATM    4  C   LIG     1      -1.007  -1.113   0.446  1.00  0.00     0.020 C 
HETATM    5  C   LIG     1      -0.660   1.262  -0.317  1.00  0.00     0.020 C 
ENDBRANCH   1   3
BRANCH   1   6
HETATM    6  O   LIG     1       1.838   0.278  -1.148  1.00  0.00    -0.776 OA
HETATM    7  H   LIG     1       2.763   0.022  -1.471  1.00  0.00     0.167 HD
ENDBRANCH   1   6
TORSDOF 2
