MODEL 1
REMARK VINA RESULT:      -4.0      0.000      0.000
REMARK  1 active torsions:
REMARK  status: ('A' for Active; 'I' for Inactive)
REMARK    1  A    between atoms: C_2  and  C_4 
ROOT
HETATM    1 CL   LIG     1      17.367  34.821  25.487  1.00  0.00    -0.105 Cl
HETATM    2  C   LIG     1      17.244  36.537  25.002  1.00  0.00     0.211 C 
HETATM    3 CL   LIG     1      18.666  37.420  25.618  1.00  0.00    -0.105 Cl
ENDROOT
BRANCH   2   4
HETATM    4  C   LIG     1      17.121  36.698  23.482  1.00  0.00     0.211 C 
HETATM    5 CL   LIG     1      16.942  35.126  22.652  1.00  0.00    -0.105 Cl
HETATM    6 CL   LIG     1      15.732  37.739  23.068  1.00  0.00    -0.105 Cl
ENDBRANCH   2   4
TORSDOF 1
ENDMDL
MODEL 2
REMARK VINA RESULT:      -4.0      0.057      2.939
REMARK  1 active torsions:
REMARK  status: ('A' for Active; 'I' for Inactive)
REMARK    1  A    between atoms: C_2  and  C_4 
ROOT
HETATM    1 CL   LIG     1      16.937  35.152  22.591  1.00  0.00    -0.105 Cl
HETATM    2  C   LIG     1      17.101  36.718  23.436  1.00  0.00     0.211 C 
HETATM    3 CL   LIG     1      15.708  37.752  23.025  1.00  0.00    -0.105 Cl
ENDROOT
BRANCH   2   4
HETATM    4  C   LIG     1      17.218  36.543  24.955  1.00  0.00     0.211 C 
HETATM    5 CL   LIG     1      17.330  34.823  25.426  1.00  0.00    -0.105 Cl
HETATM    6 CL   LIG     1      18.643  37.414  25.584  1.00  0.00    -0.105 Cl
ENDBRANCH   2   4
TORSDOF 1
ENDMDL
MODEL 3
REMARK VINA RESULT:      -3.9      0.861      1.726
REMARK  1 active torsions:
REMARK  status: ('A' for Active; 'I' for Inactive)
REMARK    1  A    between atoms: C_2  and  C_4 
ROOT
HETATM    1 CL   LIG     1      17.475  34.884  25.415  1.00  0.00    -0.105 Cl
HETATM    2  C   LIG     1      17.202  36.594  24.972  1.00  0.00     0.211 C 
HETATM    3 CL   LIG     1      18.670  37.534  25.345  1.00  0.00    -0.105 Cl
ENDROOT
BRANCH   2   4
HETATM    4  C   LIG     1      16.817  36.751  23.496  1.00  0.00     0.211 C 
HETATM    5 CL   LIG     1      17.720  38.073  22.703  1.00  0.00    -0.105 Cl
HETATM    6 CL   LIG     1      17.102  35.232  22.604  1.00  0.00    -0.105 Cl
ENDBRANCH   2   4
TORSDOF 1
ENDMDL
MODEL 4
REMARK VINA RESULT:      -3.9      1.028      2.424
REMARK  1 active torsions:
REMARK  status: ('A' for Active; 'I' for Inactive)
REMARK    1  A    between atoms: C_2  and  C_4 
ROOT
HETATM    1 CL   LIG     1      17.253  38.033  25.699  1.00  0.00    -0.105 Cl
HETATM    2  C   LIG     1      17.652  36.650  24.640  1.00  0.00     0.211 C 
HETATM    3 CL   LIG     1      17.352  35.132  25.526  1.00  0.00    -0.105 Cl
ENDROOT
BRANCH   2   4
HETATM    4  C   LIG     1      16.855  36.681  23.330  1.00  0.00     0.211 C 
HETATM    5 CL   LIG     1      17.371  38.016  22.261  1.00  0.00    -0.105 Cl
HETATM    6 CL   LIG     1      17.021  35.135  22.454  1.00  0.00    -0.105 Cl
ENDBRANCH   2   4
TORSDOF 1
ENDMDL
MODEL 5
REMARK VINA RESULT:      -3.9      0.926      3.569
REMARK  1 active torsions:
REMARK  status: ('A' for Active; 'I' for Inactive)
REMARK    1  A    between atoms: C_2  and  C_4 
ROOT
HETATM    1 CL   LIG     1      17.141  38.052  22.411  1.00  0.00    -0.105 Cl
HETATM    2  C   LIG     1      16.774  36.601  23.388  1.00  0.00     0.211 C 
HETATM    3 CL   LIG     1      17.018  35.146  22.387  1.00  0.00    -0.105 Cl
ENDROOT
BRANCH   2   4
HETATM    4  C   LIG     1      17.628  36.534  24.660  1.00  0.00     0.211 C 
HETATM    5 CL   LIG     1      17.302  37.903  25.761  1.00  0.00    -0.105 Cl
HETATM    6 CL   LIG     1      17.343  35.004  25.532  1.00  0.00    -0.105 Cl
ENDBRANCH   2   4
TORSDOF 1
ENDMDL
MODEL 6
REMARK VINA RESULT:      -3.8      1.025      2.648
REMARK  1 active torsions:
REMARK  status: ('A' for Active; 'I' for Inactive)
REMARK    1  A    between atoms: C_2  and  C_4 
ROOT
HETATM    1 CL   LIG     1      16.369  38.397  22.725  1.00  0.00    -0.105 Cl
HETATM    2  C   LIG     1      17.321  37.344  23.811  1.00  0.00     0.211 C 
HETATM    3 CL   LIG     1      17.265  38.009  25.464  1.00  0.00    -0.105 Cl
ENDROOT
BRANCH   2   4
HETATM    4  C   LIG     1      16.822  35.895  23.791  1.00  0.00     0.211 C 
HETATM    5 CL   LIG     1      17.225  35.066  22.259  1.00  0.00    -0.105 Cl
HETATM    6 CL   LIG     1      17.511  34.971  25.153  1.00  0.00    -0.105 Cl
ENDBRANCH   2   4
TORSDOF 1
ENDMDL
MODEL 7
REMARK VINA RESULT:      -3.8      1.852      3.440
REMARK  1 active torsions:
REMARK  status: ('A' for Active; 'I' for Inactive)
REMARK    1  A    between atoms: C_2  and  C_4 
ROOT
HETATM    1 CL   LIG     1      18.477  38.914  22.253  1.00  0.00    -0.105 Cl
HETATM    2  C   LIG     1      17.188  37.693  22.052  1.00  0.00     0.211 C 
HETATM    3 CL   LIG     1      17.697  36.504  20.824  1.00  0.00    -0.105 Cl
ENDROOT
BRANCH   2   4
HETATM    4  C   LIG     1      16.846  36.995  23.374  1.00  0.00     0.211 C 
HETATM    5 CL   LIG     1      17.073  35.225  23.277  1.00  0.00    -0.105 Cl
HETATM    6 CL   LIG     1      17.844  37.639  24.705  1.00  0.00    -0.105 Cl
ENDBRANCH   2   4
TORSDOF 1
ENDMDL
MODEL 8
REMARK VINA RESULT:      -3.8      1.085      2.625
REMARK  1 active torsions:
REMARK  status: ('A' for Active; 'I' for Inactive)
REMARK    1  A    between atoms: C_2  and  C_4 
ROOT
HETATM    1 CL   LIG     1      17.188  35.216  22.175  1.00  0.00    -0.105 Cl
HETATM    2  C   LIG     1      16.816  36.029  23.723  1.00  0.00     0.211 C 
HETATM    3 CL   LIG     1      17.470  35.054  25.065  1.00  0.00    -0.105 Cl
ENDROOT
BRANCH   2   4
HETATM    4  C   LIG     1      17.370  37.458  23.770  1.00  0.00     0.211 C 
HETATM    5 CL   LIG     1      16.497  38.553  22.660  1.00  0.00    -0.105 Cl
HETATM    6 CL   LIG     1      17.281  38.115  25.427  1.00  0.00    -0.105 Cl
ENDBRANCH   2   4
TORSDOF 1
ENDMDL
MODEL 9
REMARK VINA RESULT:      -3.8      1.822      3.213
REMARK  1 active torsions:
REMARK  status: ('A' for Active; 'I' for Inactive)
REMARK    1  A    between atoms: C_2  and  C_4 
ROOT
HETATM    1 CL   LIG     1      17.546  36.273  20.935  1.00  0.00    -0.105 Cl
HETATM    2  C   LIG     1      16.706  36.516  22.494  1.00  0.00     0.211 C 
HETATM    3 CL   LIG     1      17.126  35.179  23.597  1.00  0.00    -0.105 Cl
ENDROOT
BRANCH   2   4
HETATM    4  C   LIG     1      17.048  37.870  23.127  1.00  0.00     0.211 C 
HETATM    5 CL   LIG     1      17.830  37.687  24.723  1.00  0.00    -0.105 Cl
HETATM    6 CL   LIG     1      18.119  38.814  22.057  1.00  0.00    -0.105 Cl
ENDBRANCH   2   4
TORSDOF 1
ENDMDL
MODEL 10
REMARK VINA RESULT:      -3.8      1.837      2.772
REMARK  1 active torsions:
REMARK  status: ('A' for Active; 'I' for Inactive)
REMARK    1  A    between atoms: C_2  and  C_4 
ROOT
HETATM    1 CL   LIG     1      17.089  37.746  24.684  1.00  0.00    -0.105 Cl
HETATM    2  C   LIG     1      16.592  37.742  22.967  1.00  0.00     0.211 C 
HETATM    3 CL   LIG     1      17.698  38.786  22.037  1.00  0.00    -0.105 Cl
ENDROOT
BRANCH   2   4
HETATM    4  C   LIG     1      16.561  36.325  22.381  1.00  0.00     0.211 C 
HETATM    5 CL   LIG     1      17.568  36.185  20.911  1.00  0.00    -0.105 Cl
HETATM    6 CL   LIG     1      17.116  35.131  23.585  1.00  0.00    -0.105 Cl
ENDBRANCH   2   4
TORSDOF 1
ENDMDL
MODEL 11
REMARK VINA RESULT:      -3.8      2.668      3.959
REMARK  1 active torsions:
REMARK  status: ('A' for Active; 'I' for Inactive)
REMARK    1  A    between atoms: C_2  and  C_4 
ROOT
HETATM    1 CL   LIG     1      18.650  36.647  19.995  1.00  0.00    -0.105 Cl
HETATM    2  C   LIG     1      17.272  36.607  21.132  1.00  0.00     0.211 C 
HETATM    3 CL   LIG     1      17.211  35.007  21.917  1.00  0.00    -0.105 Cl
ENDROOT
BRANCH   2   4
HETATM    4  C   LIG     1      17.358  37.723  22.180  1.00  0.00     0.211 C 
HETATM    5 CL   LIG     1      18.105  39.207  21.521  1.00  0.00    -0.105 Cl
HETATM    6 CL   LIG     1      15.739  38.118  22.816  1.00  0.00    -0.105 Cl
ENDBRANCH   2   4
TORSDOF 1
ENDMDL
MODEL 12
REMARK VINA RESULT:      -3.7      2.647      3.859
REMARK  1 active torsions:
REMARK  status: ('A' for Active; 'I' for Inactive)
REMARK    1  A    between atoms: C_2  and  C_4 
ROOT
HETATM    1 CL   LIG     1      18.023  39.189  21.569  1.00  0.00    -0.105 Cl
HETATM    2  C   LIG     1      17.295  37.693  22.221  1.00  0.00     0.211 C 
HETATM    3 CL   LIG     1      15.667  38.062  22.848  1.00  0.00    -0.105 Cl
ENDROOT
BRANCH   2   4
HETATM    4  C   LIG     1      17.232  36.578  21.169  1.00  0.00     0.211 C 
HETATM    5 CL   LIG     1      18.611  36.646  20.036  1.00  0.00    -0.105 Cl
HETATM    6 CL   LIG     1      17.197  34.975  21.951  1.00  0.00    -0.105 Cl
ENDBRANCH   2   4
TORSDOF 1
ENDMDL
MODEL 13
REMARK VINA RESULT:      -3.7      2.532      4.075
REMARK  1 active torsions:
REMARK  status: ('A' for Active; 'I' for Inactive)
REMARK    1  A    between atoms: C_2  and  C_4 
ROOT
HETATM    1 CL   LIG     1      18.910  39.068  21.756  1.00  0.00    -0.105 Cl
HETATM    2  C   LIG     1      17.736  37.828  21.227  1.00  0.00     0.211 C 
HETATM    3 CL   LIG     1      18.551  36.687  20.125  1.00  0.00    -0.105 Cl
ENDROOT
BRANCH   2   4
HETATM    4  C   LIG     1      17.112  37.084  22.414  1.00  0.00     0.211 C 
HETATM    5 CL   LIG     1      15.476  37.691  22.802  1.00  0.00    -0.105 Cl
HETATM    6 CL   LIG     1      17.021  35.333  22.084  1.00  0.00    -0.105 Cl
ENDBRANCH   2   4
TORSDOF 1
ENDMDL
MODEL 14
REMARK VINA RESULT:      -3.6      2.606      3.988
REMARK  1 active torsions:
REMARK  status: ('A' for Active; 'I' for Inactive)
REMARK    1  A    between atoms: C_2  and  C_4 
ROOT
HETATM    1 CL   LIG     1      16.152  35.325  20.316  1.00  0.00    -0.105 Cl
HETATM    2  C   LIG     1      17.519  36.218  21.043  1.00  0.00     0.211 C 
HETATM    3 CL   LIG     1      18.603  36.784  19.745  1.00  0.00    -0.105 Cl
ENDROOT
BRANCH   2   4
HETATM    4  C   LIG     1      17.044  37.395  21.905  1.00  0.00     0.211 C 
HETATM    5 CL   LIG     1      17.067  37.003  23.648  1.00  0.00    -0.105 Cl
HETATM    6 CL   LIG     1      18.055  38.836  21.617  1.00  0.00    -0.105 Cl
ENDBRANCH   2   4
TORSDOF 1
ENDMDL
MODEL 15
REMARK VINA RESULT:      -3.6      2.584      3.306
REMARK  1 active torsions:
REMARK  status: ('A' for Active; 'I' for Inactive)
REMARK    1  A    between atoms: C_2  and  C_4 
ROOT
HETATM    1 CL   LIG     1      16.916  35.097  22.571  1.00  0.00    -0.105 Cl
HETATM    2  C   LIG     1      16.650  36.653  21.734  1.00  0.00     0.211 C 
HETATM    3 CL   LIG     1      15.699  37.729  22.793  1.00  0.00    -0.105 Cl
ENDROOT
BRANCH   2   4
HETATM    4  C   LIG     1      17.969  37.320  21.327  1.00  0.00     0.211 C 
HETATM    5 CL   LIG     1      18.492  36.829  19.690  1.00  0.00    -0.105 Cl
HETATM    6 CL   LIG     1      17.822  39.097  21.384  1.00  0.00    -0.105 Cl
ENDBRANCH   2   4
TORSDOF 1
ENDMDL
MODEL 16
REMARK VINA RESULT:      -3.6      3.080      3.952
REMARK  1 active torsions:
REMARK  status: ('A' for Active; 'I' for Inactive)
REMARK    1  A    between atoms: C_2  and  C_4 
ROOT
HETATM    1 CL   LIG     1      17.560  38.091  23.253  1.00  0.00    -0.105 Cl
HETATM    2  C   LIG     1      17.652  38.108  21.468  1.00  0.00     0.211 C 
HETATM    3 CL   LIG     1      18.793  39.378  20.955  1.00  0.00    -0.105 Cl
ENDROOT
BRANCH   2   4
HETATM    4  C   LIG     1      18.066  36.745  20.900  1.00  0.00     0.211 C 
HETATM    5 CL   LIG     1      16.654  35.708  20.548  1.00  0.00    -0.105 Cl
HETATM    6 CL   LIG     1      19.027  36.947  19.411  1.00  0.00    -0.105 Cl
ENDBRANCH   2   4
TORSDOF 1
ENDMDL
MODEL 17
REMARK VINA RESULT:      -3.5      1.600      3.071
REMARK  1 active torsions:
REMARK  status: ('A' for Active; 'I' for Inactive)
REMARK    1  A    between atoms: C_2  and  C_4 
ROOT
HETATM    1 CL   LIG     1      17.058  35.042  23.834  1.00  0.00    -0.105 Cl
HETATM    2  C   LIG     1      16.996  36.370  22.639  1.00  0.00     0.211 C 
HETATM    3 CL   LIG     1      15.372  36.417  21.904  1.00  0.00    -0.105 Cl
ENDROOT
BRANCH   2   4
HETATM    4  C   LIG     1      17.348  37.724  23.265  1.00  0.00     0.211 C 
HETATM    5 CL   LIG     1      16.453  39.070  22.503  1.00  0.00    -0.105 Cl
HETATM    6 CL   LIG     1      17.011  37.717  25.017  1.00  0.00    -0.105 Cl
ENDBRANCH   2   4
TORSDOF 1
ENDMDL
MODEL 18
REMARK VINA RESULT:      -3.5      2.331      3.079
REMARK  1 active torsions:
REMARK  status: ('A' for Active; 'I' for Inactive)
REMARK    1  A    between atoms: C_2  and  C_4 
ROOT
HETATM    1 CL   LIG     1      15.509  37.881  22.798  1.00  0.00    -0.105 Cl
HETATM    2  C   LIG     1      17.135  38.588  23.020  1.00  0.00     0.211 C 
HETATM    3 CL   LIG     1      17.735  38.172  24.647  1.00  0.00    -0.105 Cl
ENDROOT
BRANCH   2   4
HETATM    4  C   LIG     1      18.119  38.117  21.941  1.00  0.00     0.211 C 
HETATM    5 CL   LIG     1      17.504  36.700  21.044  1.00  0.00    -0.105 Cl
HETATM    6 CL   LIG     1      18.467  39.433  20.787  1.00  0.00    -0.105 Cl
ENDBRANCH   2   4
TORSDOF 1
ENDMDL
MODEL 19
REMARK VINA RESULT:      -3.5      2.025      3.861
REMARK  1 active torsions:
REMARK  status: ('A' for Active; 'I' for Inactive)
REMARK    1  A    between atoms: C_2  and  C_4 
ROOT
HETATM    1 CL   LIG     1      15.456  35.486  20.647  1.00  0.00    -0.105 Cl
HETATM    2  C   LIG     1      17.088  35.723  21.337  1.00  0.00     0.211 C 
HETATM    3 CL   LIG     1      18.112  36.555  20.137  1.00  0.00    -0.105 Cl
ENDROOT
BRANCH   2   4
HETATM    4  C   LIG     1      17.047  36.508  22.653  1.00  0.00     0.211 C 
HETATM    5 CL   LIG     1      15.576  37.513  22.791  1.00  0.00    -0.105 Cl
HETATM    6 CL   LIG     1      17.130  35.402  24.051  1.00  0.00    -0.105 Cl
ENDBRANCH   2   4
TORSDOF 1
ENDMDL
MODEL 20
REMARK VINA RESULT:      -3.5      4.760      5.781
REMARK  1 active torsions:
REMARK  status: ('A' for Active; 'I' for Inactive)
REMARK    1  A    between atoms: C_2  and  C_4 
ROOT
HETATM    1 CL   LIG     1      20.903  38.389  19.539  1.00  0.00    -0.105 Cl
HETATM    2  C   LIG     1      19.321  39.220  19.529  1.00  0.00     0.211 C 
HETATM    3 CL   LIG     1      18.693  39.259  17.861  1.00  0.00    -0.105 Cl
ENDROOT
BRANCH   2   4
HETATM    4  C   LIG     1      18.314  38.551  20.473  1.00  0.00     0.211 C 
HETATM    5 CL   LIG     1      18.316  36.772  20.306  1.00  0.00    -0.105 Cl
HETATM    6 CL   LIG     1      18.660  38.978  22.171  1.00  0.00    -0.105 Cl
ENDBRANCH   2   4
TORSDOF 1
ENDMDL
