MODEL 1
REMARK VINA RESULT:      -4.6      0.000      0.000
REMARK  2 active torsions:
REMARK  status: ('A' for Active; 'I' for Inactive)
REMARK    1  A    between atoms: C_2  and  C_4 
REMARK    2  A    between atoms: C_4  and  O_5 
ROOT
HETATM    1  C   LIG     1      17.089  37.768  25.158  1.00  0.00     0.143 C 
HETATM    2  O   LIG     1      16.148  37.739  24.320  1.00  0.00    -0.650 OA
ENDROOT
BRANCH   1   3
HETATM    3  C   LIG     1      17.962  36.552  25.339  1.00  0.00     0.075 C 
HETATM    4  C   LIG     1      17.262  35.309  24.779  1.00  0.00     0.020 C 
HETATM    5  C   LIG     1      18.343  36.335  26.809  1.00  0.00     0.020 C 
ENDBRANCH   1   3
BRANCH   1   6
HETATM    6  O   LIG     1      17.312  38.926  25.899  1.00  0.00    -0.776 OA
HETATM    7  H   LIG     1      16.625  39.670  25.920  1.00  0.00     0.167 HD
ENDBRANCH   1   6
TORSDOF 2
ENDMDL
MODEL 2
REMARK VINA RESULT:      -4.5      1.206      1.873
REMARK  2 active torsions:
REMARK  status: ('A' for Active; 'I' for Inactive)
REMARK    1  A    between atoms: C_2  and  C_4 
REMARK    2  A    between atoms: C_4  and  O_5 
ROOT
HETATM    1  C   LIG     1      17.542  37.111  25.394  1.00  0.00     0.143 C 
HETATM    2  O   LIG     1      16.646  37.912  25.012  1.00  0.00    -0.650 OA
ENDROOT
BRANCH   1   3
HETATM    3  C   LIG     1      17.255  35.631  25.415  1.00  0.00     0.075 C 
HETATM    4  C   LIG     1      18.304  34.900  26.259  1.00  0.00     0.020 C 
HETATM    5  C   LIG     1      17.198  35.039  24.001  1.00  0.00     0.020 C 
ENDBRANCH   1   3
BRANCH   1   6
HETATM    6  O   LIG     1      18.784  37.606  25.784  1.00  0.00    -0.776 OA
HETATM    7  H   LIG     1      19.099  37.524  26.743  1.00  0.00     0.167 HD
ENDBRANCH   1   6
TORSDOF 2
ENDMDL
MODEL 3
REMARK VINA RESULT:      -4.1      2.648      3.626
REMARK  2 active torsions:
REMARK  status: ('A' for Active; 'I' for Inactive)
REMARK    1  A    between atoms: C_2  and  C_4 
REMARK    2  A    between atoms: C_4  and  O_5 
ROOT
HETATM    1  C   LIG     1      16.264  37.901  23.492  1.00  0.00     0.143 C 
HETATM    2  O   LIG     1      16.494  37.945  24.731  1.00  0.00    -0.650 OA
ENDROOT
BRANCH   1   3
HETATM    3  C   LIG     1      17.397  37.634  22.534  1.00  0.00     0.075 C 
HETATM    4  C   LIG     1      17.728  38.900  21.738  1.00  0.00     0.020 C 
HETATM    5  C   LIG     1      17.080  36.471  21.585  1.00  0.00     0.020 C 
ENDBRANCH   1   3
BRANCH   1   6
HETATM    6  O   LIG     1      14.965  38.096  23.029  1.00  0.00    -0.776 OA
HETATM    7  H   LIG     1      14.250  38.486  23.631  1.00  0.00     0.167 HD
ENDBRANCH   1   6
TORSDOF 2
ENDMDL
MODEL 4
REMARK VINA RESULT:      -4.1      2.572      3.186
REMARK  2 active torsions:
REMARK  status: ('A' for Active; 'I' for Inactive)
REMARK    1  A    between atoms: C_2  and  C_4 
REMARK    2  A    between atoms: C_4  and  O_5 
ROOT
HETATM    1  C   LIG     1      17.290  38.182  23.917  1.00  0.00     0.143 C 
HETATM    2  O   LIG     1      16.182  37.963  24.476  1.00  0.00    -0.650 OA
ENDROOT
BRANCH   1   3
HETATM    3  C   LIG     1      17.342  38.394  22.425  1.00  0.00     0.075 C 
HETATM    4  C   LIG     1      17.207  37.054  21.694  1.00  0.00     0.020 C 
HETATM    5  C   LIG     1      18.628  39.112  21.994  1.00  0.00     0.020 C 
ENDBRANCH   1   3
BRANCH   1   6
HETATM    6  O   LIG     1      18.450  38.230  24.688  1.00  0.00    -0.776 OA
HETATM    7  H   LIG     1      19.351  38.000  24.287  1.00  0.00     0.167 HD
ENDBRANCH   1   6
TORSDOF 2
ENDMDL
MODEL 5
REMARK VINA RESULT:      -4.0      5.168      5.557
REMARK  2 active torsions:
REMARK  status: ('A' for Active; 'I' for Inactive)
REMARK    1  A    between atoms: C_2  and  C_4 
REMARK    2  A    between atoms: C_4  and  O_5 
ROOT
HETATM    1  C   LIG     1      19.347  39.035  20.619  1.00  0.00     0.143 C 
HETATM    2  O   LIG     1      20.127  39.547  19.771  1.00  0.00    -0.650 OA
ENDROOT
BRANCH   1   3
HETATM    3  C   LIG     1      18.434  37.908  20.205  1.00  0.00     0.075 C 
HETATM    4  C   LIG     1      17.641  37.398  21.413  1.00  0.00     0.020 C 
HETATM    5  C   LIG     1      19.208  36.758  19.548  1.00  0.00     0.020 C 
ENDBRANCH   1   3
BRANCH   1   6
HETATM    6  O   LIG     1      19.345  39.514  21.927  1.00  0.00    -0.776 OA
HETATM    7  H   LIG     1      20.028  40.197  22.232  1.00  0.00     0.167 HD
ENDBRANCH   1   6
TORSDOF 2
ENDMDL
MODEL 6
REMARK VINA RESULT:      -4.0      4.309      5.168
REMARK  2 active torsions:
REMARK  status: ('A' for Active; 'I' for Inactive)
REMARK    1  A    between atoms: C_2  and  C_4 
REMARK    2  A    between atoms: C_4  and  O_5 
ROOT
HETATM    1  C   LIG     1      15.518  34.616  21.096  1.00  0.00     0.143 C 
HETATM    2  O   LIG     1      15.967  33.955  20.121  1.00  0.00    -0.650 OA
ENDROOT
BRANCH   1   3
HETATM    3  C   LIG     1      16.383  35.668  21.743  1.00  0.00     0.075 C 
HETATM    4  C   LIG     1      17.476  36.126  20.772  1.00  0.00     0.020 C 
HETATM    5  C   LIG     1      17.006  35.169  23.054  1.00  0.00     0.020 C 
ENDBRANCH   1   3
BRANCH   1   6
HETATM    6  O   LIG     1      14.227  34.367  21.557  1.00  0.00    -0.776 OA
HETATM    7  H   LIG     1      13.424  34.515  20.959  1.00  0.00     0.167 HD
ENDBRANCH   1   6
TORSDOF 2
ENDMDL
MODEL 7
REMARK VINA RESULT:      -4.0      7.690      8.588
REMARK  2 active torsions:
REMARK  status: ('A' for Active; 'I' for Inactive)
REMARK    1  A    between atoms: C_2  and  C_4 
REMARK    2  A    between atoms: C_4  and  O_5 
ROOT
HETATM    1  C   LIG     1      14.926  32.431  18.133  1.00  0.00     0.143 C 
HETATM    2  O   LIG     1      15.591  32.991  17.220  1.00  0.00    -0.650 OA
ENDROOT
BRANCH   1   3
HETATM    3  C   LIG     1      15.555  32.219  19.488  1.00  0.00     0.075 C 
HETATM    4  C   LIG     1      14.846  31.081  20.229  1.00  0.00     0.020 C 
HETATM    5  C   LIG     1      15.539  33.501  20.331  1.00  0.00     0.020 C 
ENDBRANCH   1   3
BRANCH   1   6
HETATM    6  O   LIG     1      13.620  32.021  17.878  1.00  0.00    -0.776 OA
HETATM    7  H   LIG     1      13.274  31.945  16.929  1.00  0.00     0.167 HD
ENDBRANCH   1   6
TORSDOF 2
ENDMDL
MODEL 8
REMARK VINA RESULT:      -3.9      5.042      5.408
REMARK  2 active torsions:
REMARK  status: ('A' for Active; 'I' for Inactive)
REMARK    1  A    between atoms: C_2  and  C_4 
REMARK    2  A    between atoms: C_4  and  O_5 
ROOT
HETATM    1  C   LIG     1      18.560  38.875  21.265  1.00  0.00     0.143 C 
HETATM    2  O   LIG     1      17.359  38.822  21.645  1.00  0.00    -0.650 OA
ENDROOT
BRANCH   1   3
HETATM    3  C   LIG     1      18.924  38.405  19.879  1.00  0.00     0.075 C 
HETATM    4  C   LIG     1      18.774  36.884  19.779  1.00  0.00     0.020 C 
HETATM    5  C   LIG     1      20.344  38.831  19.486  1.00  0.00     0.020 C 
ENDBRANCH   1   3
BRANCH   1   6
HETATM    6  O   LIG     1      19.532  39.372  22.131  1.00  0.00    -0.776 OA
HETATM    7  H   LIG     1      19.854  40.330  22.056  1.00  0.00     0.167 HD
ENDBRANCH   1   6
TORSDOF 2
ENDMDL
MODEL 9
REMARK VINA RESULT:      -3.8      2.443      3.460
REMARK  2 active torsions:
REMARK  status: ('A' for Active; 'I' for Inactive)
REMARK    1  A    between atoms: C_2  and  C_4 
REMARK    2  A    between atoms: C_4  and  O_5 
ROOT
HETATM    1  C   LIG     1      16.007  37.471  22.762  1.00  0.00     0.143 C 
HETATM    2  O   LIG     1      15.699  36.555  21.954  1.00  0.00    -0.650 OA
ENDROOT
BRANCH   1   3
HETATM    3  C   LIG     1      17.457  37.845  22.944  1.00  0.00     0.075 C 
HETATM    4  C   LIG     1      17.755  38.106  24.424  1.00  0.00     0.020 C 
HETATM    5  C   LIG     1      17.843  39.065  22.097  1.00  0.00     0.020 C 
ENDBRANCH   1   3
BRANCH   1   6
HETATM    6  O   LIG     1      15.004  38.128  23.471  1.00  0.00    -0.776 OA
HETATM    7  H   LIG     1      15.118  38.345  24.453  1.00  0.00     0.167 HD
ENDBRANCH   1   6
TORSDOF 2
ENDMDL
MODEL 10
REMARK VINA RESULT:      -3.8      1.662      2.519
REMARK  2 active torsions:
REMARK  status: ('A' for Active; 'I' for Inactive)
REMARK    1  A    between atoms: C_2  and  C_4 
REMARK    2  A    between atoms: C_4  and  O_5 
ROOT
HETATM    1  C   LIG     1      17.359  36.026  24.509  1.00  0.00     0.143 C 
HETATM    2  O   LIG     1      16.895  36.478  23.427  1.00  0.00    -0.650 OA
ENDROOT
BRANCH   1   3
HETATM    3  C   LIG     1      18.088  36.951  25.450  1.00  0.00     0.075 C 
HETATM    4  C   LIG     1      18.328  36.257  26.795  1.00  0.00     0.020 C 
HETATM    5  C   LIG     1      17.332  38.270  25.655  1.00  0.00     0.020 C 
ENDBRANCH   1   3
BRANCH   1   6
HETATM    6  O   LIG     1      17.185  34.679  24.819  1.00  0.00    -0.776 OA
HETATM    7  H   LIG     1      16.287  34.328  25.129  1.00  0.00     0.167 HD
ENDBRANCH   1   6
TORSDOF 2
ENDMDL
MODEL 11
REMARK VINA RESULT:      -3.7      5.045      5.757
REMARK  2 active torsions:
REMARK  status: ('A' for Active; 'I' for Inactive)
REMARK    1  A    between atoms: C_2  and  C_4 
REMARK    2  A    between atoms: C_4  and  O_5 
ROOT
HETATM    1  C   LIG     1      18.344  37.198  20.283  1.00  0.00     0.143 C 
HETATM    2  O   LIG     1      17.578  36.652  21.122  1.00  0.00    -0.650 OA
ENDROOT
BRANCH   1   3
HETATM    3  C   LIG     1      18.686  38.660  20.430  1.00  0.00     0.075 C 
HETATM    4  C   LIG     1      20.056  38.948  19.807  1.00  0.00     0.020 C 
HETATM    5  C   LIG     1      18.660  39.108  21.897  1.00  0.00     0.020 C 
ENDBRANCH   1   3
BRANCH   1   6
HETATM    6  O   LIG     1      18.867  36.442  19.237  1.00  0.00    -0.776 OA
HETATM    7  H   LIG     1      18.439  36.459  18.319  1.00  0.00     0.167 HD
ENDBRANCH   1   6
TORSDOF 2
ENDMDL
MODEL 12
REMARK VINA RESULT:      -3.7     13.391     14.060
REMARK  2 active torsions:
REMARK  status: ('A' for Active; 'I' for Inactive)
REMARK    1  A    between atoms: C_2  and  C_4 
REMARK    2  A    between atoms: C_4  and  O_5 
ROOT
HETATM    1  C   LIG     1      13.406  29.602  14.565  1.00  0.00     0.143 C 
HETATM    2  O   LIG     1      12.944  30.442  15.384  1.00  0.00    -0.650 OA
ENDROOT
BRANCH   1   3
HETATM    3  C   LIG     1      14.895  29.525  14.340  1.00  0.00     0.075 C 
HETATM    4  C   LIG     1      15.362  30.703  13.478  1.00  0.00     0.020 C 
HETATM    5  C   LIG     1      15.308  28.195  13.697  1.00  0.00     0.020 C 
ENDBRANCH   1   3
BRANCH   1   6
HETATM    6  O   LIG     1      12.534  28.754  13.887  1.00  0.00    -0.776 OA
HETATM    7  H   LIG     1      12.884  28.053  13.245  1.00  0.00     0.167 HD
ENDBRANCH   1   6
TORSDOF 2
ENDMDL
MODEL 13
REMARK VINA RESULT:      -3.7     12.069     12.885
REMARK  2 active torsions:
REMARK  status: ('A' for Active; 'I' for Inactive)
REMARK    1  A    between atoms: C_2  and  C_4 
REMARK    2  A    between atoms: C_4  and  O_5 
ROOT
HETATM    1  C   LIG     1      15.988  31.716  14.109  1.00  0.00     0.143 C 
HETATM    2  O   LIG     1      16.891  31.722  14.988  1.00  0.00    -0.650 OA
ENDROOT
BRANCH   1   3
HETATM    3  C   LIG     1      14.862  30.717  14.207  1.00  0.00     0.075 C 
HETATM    4  C   LIG     1      14.200  30.799  15.586  1.00  0.00     0.020 C 
HETATM    5  C   LIG     1      15.342  29.287  13.926  1.00  0.00     0.020 C 
ENDBRANCH   1   3
BRANCH   1   6
HETATM    6  O   LIG     1      16.040  32.637  13.065  1.00  0.00    -0.776 OA
HETATM    7  H   LIG     1      16.766  32.584  12.361  1.00  0.00     0.167 HD
ENDBRANCH   1   6
TORSDOF 2
ENDMDL
MODEL 14
REMARK VINA RESULT:      -3.7      8.848     10.012
REMARK  2 active torsions:
REMARK  status: ('A' for Active; 'I' for Inactive)
REMARK    1  A    between atoms: C_2  and  C_4 
REMARK    2  A    between atoms: C_4  and  O_5 
ROOT
HETATM    1  C   LIG     1      14.702  32.268  18.243  1.00  0.00     0.143 C 
HETATM    2  O   LIG     1      15.582  33.100  18.594  1.00  0.00    -0.650 OA
ENDROOT
BRANCH   1   3
HETATM    3  C   LIG     1      14.266  32.210  16.801  1.00  0.00     0.075 C 
HETATM    4  C   LIG     1      13.489  30.916  16.534  1.00  0.00     0.020 C 
HETATM    5  C   LIG     1      15.456  32.329  15.839  1.00  0.00     0.020 C 
ENDBRANCH   1   3
BRANCH   1   6
HETATM    6  O   LIG     1      14.150  31.412  19.193  1.00  0.00    -0.776 OA
HETATM    7  H   LIG     1      14.189  30.407  19.073  1.00  0.00     0.167 HD
ENDBRANCH   1   6
TORSDOF 2
ENDMDL
MODEL 15
REMARK VINA RESULT:      -3.7      8.199      9.360
REMARK  2 active torsions:
REMARK  status: ('A' for Active; 'I' for Inactive)
REMARK    1  A    between atoms: C_2  and  C_4 
REMARK    2  A    between atoms: C_4  and  O_5 
ROOT
HETATM    1  C   LIG     1      14.977  32.346  18.868  1.00  0.00     0.143 C 
HETATM    2  O   LIG     1      15.751  33.140  19.467  1.00  0.00    -0.650 OA
ENDROOT
BRANCH   1   3
HETATM    3  C   LIG     1      14.841  32.430  17.368  1.00  0.00     0.075 C 
HETATM    4  C   LIG     1      14.971  33.885  16.905  1.00  0.00     0.020 C 
HETATM    5  C   LIG     1      13.517  31.829  16.880  1.00  0.00     0.020 C 
ENDBRANCH   1   3
BRANCH   1   6
HETATM    6  O   LIG     1      14.263  31.400  19.600  1.00  0.00    -0.776 OA
HETATM    7  H   LIG     1      13.655  30.735  19.138  1.00  0.00     0.167 HD
ENDBRANCH   1   6
TORSDOF 2
ENDMDL
MODEL 16
REMARK VINA RESULT:      -3.6      3.777      4.647
REMARK  2 active torsions:
REMARK  status: ('A' for Active; 'I' for Inactive)
REMARK    1  A    between atoms: C_2  and  C_4 
REMARK    2  A    between atoms: C_4  and  O_5 
ROOT
HETATM    1  C   LIG     1      17.503  36.420  20.873  1.00  0.00     0.143 C 
HETATM    2  O   LIG     1      17.646  37.503  21.501  1.00  0.00    -0.650 OA
ENDROOT
BRANCH   1   3
HETATM    3  C   LIG     1      16.760  35.278  21.518  1.00  0.00     0.075 C 
HETATM    4  C   LIG     1      15.263  35.377  21.206  1.00  0.00     0.020 C 
HETATM    5  C   LIG     1      16.989  35.232  23.035  1.00  0.00     0.020 C 
ENDBRANCH   1   3
BRANCH   1   6
HETATM    6  O   LIG     1      18.030  36.298  19.589  1.00  0.00    -0.776 OA
HETATM    7  H   LIG     1      18.974  35.961  19.444  1.00  0.00     0.167 HD
ENDBRANCH   1   6
TORSDOF 2
ENDMDL
MODEL 17
REMARK VINA RESULT:      -3.6      8.064      8.909
REMARK  2 active torsions:
REMARK  status: ('A' for Active; 'I' for Inactive)
REMARK    1  A    between atoms: C_2  and  C_4 
REMARK    2  A    between atoms: C_4  and  O_5 
ROOT
HETATM    1  C   LIG     1      15.202  33.972  17.595  1.00  0.00     0.143 C 
HETATM    2  O   LIG     1      15.186  34.520  16.460  1.00  0.00    -0.650 OA
ENDROOT
BRANCH   1   3
HETATM    3  C   LIG     1      14.968  32.486  17.708  1.00  0.00     0.075 C 
HETATM    4  C   LIG     1      13.649  32.105  17.026  1.00  0.00     0.020 C 
HETATM    5  C   LIG     1      14.970  32.016  19.168  1.00  0.00     0.020 C 
ENDBRANCH   1   3
BRANCH   1   6
HETATM    6  O   LIG     1      15.443  34.747  18.728  1.00  0.00    -0.776 OA
HETATM    7  H   LIG     1      15.693  35.725  18.645  1.00  0.00     0.167 HD
ENDBRANCH   1   6
TORSDOF 2
ENDMDL
MODEL 18
REMARK VINA RESULT:      -3.6      9.607     10.292
REMARK  2 active torsions:
REMARK  status: ('A' for Active; 'I' for Inactive)
REMARK    1  A    between atoms: C_2  and  C_4 
REMARK    2  A    between atoms: C_4  and  O_5 
ROOT
HETATM    1  C   LIG     1      15.293  33.849  16.524  1.00  0.00     0.143 C 
HETATM    2  O   LIG     1      16.241  34.572  16.115  1.00  0.00    -0.650 OA
ENDROOT
BRANCH   1   3
HETATM    3  C   LIG     1      15.371  32.352  16.352  1.00  0.00     0.075 C 
HETATM    4  C   LIG     1      15.834  32.006  14.933  1.00  0.00     0.020 C 
HETATM    5  C   LIG     1      14.032  31.671  16.659  1.00  0.00     0.020 C 
ENDBRANCH   1   3
BRANCH   1   6
HETATM    6  O   LIG     1      14.190  34.443  17.134  1.00  0.00    -0.776 OA
HETATM    7  H   LIG     1      13.879  34.144  18.050  1.00  0.00     0.167 HD
ENDBRANCH   1   6
TORSDOF 2
ENDMDL
MODEL 19
REMARK VINA RESULT:      -3.6      5.111      5.777
REMARK  2 active torsions:
REMARK  status: ('A' for Active; 'I' for Inactive)
REMARK    1  A    between atoms: C_2  and  C_4 
REMARK    2  A    between atoms: C_4  and  O_5 
ROOT
HETATM    1  C   LIG     1      19.383  38.391  20.020  1.00  0.00     0.143 C 
HETATM    2  O   LIG     1      20.084  39.410  19.779  1.00  0.00    -0.650 OA
ENDROOT
BRANCH   1   3
HETATM    3  C   LIG     1      18.206  38.503  20.956  1.00  0.00     0.075 C 
HETATM    4  C   LIG     1      18.632  39.179  22.264  1.00  0.00     0.020 C 
HETATM    5  C   LIG     1      17.572  37.135  21.243  1.00  0.00     0.020 C 
ENDBRANCH   1   3
BRANCH   1   6
HETATM    6  O   LIG     1      19.703  37.178  19.414  1.00  0.00    -0.776 OA
HETATM    7  H   LIG     1      19.040  36.413  19.399  1.00  0.00     0.167 HD
ENDBRANCH   1   6
TORSDOF 2
ENDMDL
MODEL 20
REMARK VINA RESULT:      -3.5     13.396     14.218
REMARK  2 active torsions:
REMARK  status: ('A' for Active; 'I' for Inactive)
REMARK    1  A    between atoms: C_2  and  C_4 
REMARK    2  A    between atoms: C_4  and  O_5 
ROOT
HETATM    1  C   LIG     1      14.003  28.661  14.022  1.00  0.00     0.143 C 
HETATM    2  O   LIG     1      14.648  27.655  13.621  1.00  0.00    -0.650 OA
ENDROOT
BRANCH   1   3
HETATM    3  C   LIG     1      14.746  29.836  14.607  1.00  0.00     0.075 C 
HETATM    4  C   LIG     1      13.816  30.655  15.509  1.00  0.00     0.020 C 
HETATM    5  C   LIG     1      15.355  30.726  13.517  1.00  0.00     0.020 C 
ENDBRANCH   1   3
BRANCH   1   6
HETATM    6  O   LIG     1      12.614  28.673  13.914  1.00  0.00    -0.776 OA
HETATM    7  H   LIG     1      12.155  28.334  13.077  1.00  0.00     0.167 HD
ENDBRANCH   1   6
TORSDOF 2
ENDMDL
