REMARK  1 active torsions:
REMARK  status: ('A' for Active; 'I' for Inactive)
REMARK    1  A    between atoms: C_2  and  C_4 
ROOT
HETATM    1 CL   LIG     1       1.183   1.394   1.070  1.00  0.00    -0.105 Cl
HETATM    2  C   LIG     1       0.751   0.142  -0.130  1.00  0.00     0.211 C 
HETATM    3 CL   LIG     1       1.737  -1.314   0.166  1.00  0.00    -0.105 Cl
ENDROOT
BRANCH   2   4
HETATM    4  C   LIG     1      -0.744  -0.198  -0.094  1.00  0.00     0.211 C 
HETATM    5 CL   LIG     1      -1.268  -0.752   1.522  1.00  0.00    -0.105 Cl
HETATM    6 CL   LIG     1      -1.724   1.214  -0.573  1.00  0.00    -0.105 Cl
ENDBRANCH   2   4
TORSDOF 1
