MODEL 1
REMARK VINA RESULT:      -4.7      0.000      0.000
REMARK  2 active torsions:
REMARK  status: ('A' for Active; 'I' for Inactive)
REMARK    1  A    between atoms: C_2  and  C_3 
REMARK    2  A    between atoms: C_3  and  O_4 
ROOT
HETATM    1  C   LIG     1      17.049  37.734  25.206  1.00  0.00     0.170 C 
HETATM    2  O   LIG     1      16.176  37.716  24.297  1.00  0.00    -0.646 OA
ENDROOT
BRANCH   1   3
HETATM    3  C   LIG     1      17.695  36.465  25.620  1.00  0.00     0.002 C 
HETATM    4  C   LIG     1      17.359  35.204  24.870  1.00  0.00     0.054 C 
HETATM    5  C   LIG     1      18.539  36.415  26.658  1.00  0.00     0.025 C 
ENDBRANCH   1   3
BRANCH   1   6
HETATM    6  O   LIG     1      17.392  38.963  25.771  1.00  0.00    -0.773 OA
HETATM    7  H   LIG     1      17.974  39.045  26.594  1.00  0.00     0.167 HD
ENDBRANCH   1   6
TORSDOF 2
ENDMDL
MODEL 2
REMARK VINA RESULT:      -4.5      0.958      1.544
REMARK  2 active torsions:
REMARK  status: ('A' for Active; 'I' for Inactive)
REMARK    1  A    between atoms: C_2  and  C_3 
REMARK    2  A    between atoms: C_3  and  O_4 
ROOT
HETATM    1  C   LIG     1      17.100  37.085  24.677  1.00  0.00     0.170 C 
HETATM    2  O   LIG     1      16.635  38.210  25.002  1.00  0.00    -0.646 OA
ENDROOT
BRANCH   1   3
HETATM    3  C   LIG     1      17.782  36.256  25.701  1.00  0.00     0.002 C 
HETATM    4  C   LIG     1      17.420  34.798  25.810  1.00  0.00     0.054 C 
HETATM    5  C   LIG     1      18.682  36.781  26.541  1.00  0.00     0.025 C 
ENDBRANCH   1   3
BRANCH   1   6
HETATM    6  O   LIG     1      16.929  36.651  23.362  1.00  0.00    -0.773 OA
HETATM    7  H   LIG     1      17.449  37.038  22.585  1.00  0.00     0.167 HD
ENDBRANCH   1   6
TORSDOF 2
ENDMDL
MODEL 3
REMARK VINA RESULT:      -4.3      6.198      6.649
REMARK  2 active torsions:
REMARK  status: ('A' for Active; 'I' for Inactive)
REMARK    1  A    between atoms: C_2  and  C_3 
REMARK    2  A    between atoms: C_3  and  O_4 
ROOT
HETATM    1  C   LIG     1      19.490  39.116  18.977  1.00  0.00     0.170 C 
HETATM    2  O   LIG     1      18.720  39.670  18.148  1.00  0.00    -0.646 OA
ENDROOT
BRANCH   1   3
HETATM    3  C   LIG     1      18.941  38.111  19.921  1.00  0.00     0.002 C 
HETATM    4  C   LIG     1      18.357  38.586  21.224  1.00  0.00     0.054 C 
HETATM    5  C   LIG     1      18.983  36.801  19.650  1.00  0.00     0.025 C 
ENDBRANCH   1   3
BRANCH   1   6
HETATM    6  O   LIG     1      20.843  39.456  18.956  1.00  0.00    -0.773 OA
HETATM    7  H   LIG     1      21.222  40.233  19.484  1.00  0.00     0.167 HD
ENDBRANCH   1   6
TORSDOF 2
ENDMDL
MODEL 4
REMARK VINA RESULT:      -4.2      1.184      2.270
REMARK  2 active torsions:
REMARK  status: ('A' for Active; 'I' for Inactive)
REMARK    1  A    between atoms: C_2  and  C_3 
REMARK    2  A    between atoms: C_3  and  O_4 
ROOT
HETATM    1  C   LIG     1      16.559  37.619  24.337  1.00  0.00     0.170 C 
HETATM    2  O   LIG     1      17.193  38.456  25.033  1.00  0.00    -0.646 OA
ENDROOT
BRANCH   1   3
HETATM    3  C   LIG     1      17.053  36.223  24.248  1.00  0.00     0.002 C 
HETATM    4  C   LIG     1      17.600  35.569  25.489  1.00  0.00     0.054 C 
HETATM    5  C   LIG     1      17.049  35.552  23.090  1.00  0.00     0.025 C 
ENDBRANCH   1   3
BRANCH   1   6
HETATM    6  O   LIG     1      15.393  38.038  23.694  1.00  0.00    -0.773 OA
HETATM    7  H   LIG     1      14.544  37.488  23.684  1.00  0.00     0.167 HD
ENDBRANCH   1   6
TORSDOF 2
ENDMDL
MODEL 5
REMARK VINA RESULT:      -4.1      2.549      3.165
REMARK  2 active torsions:
REMARK  status: ('A' for Active; 'I' for Inactive)
REMARK    1  A    between atoms: C_2  and  C_3 
REMARK    2  A    between atoms: C_3  and  O_4 
ROOT
HETATM    1  C   LIG     1      17.340  38.086  23.981  1.00  0.00     0.170 C 
HETATM    2  O   LIG     1      16.161  38.003  24.417  1.00  0.00    -0.646 OA
ENDROOT
BRANCH   1   3
HETATM    3  C   LIG     1      17.572  38.142  22.517  1.00  0.00     0.002 C 
HETATM    4  C   LIG     1      17.147  36.970  21.672  1.00  0.00     0.054 C 
HETATM    5  C   LIG     1      18.173  39.191  21.943  1.00  0.00     0.025 C 
ENDBRANCH   1   3
BRANCH   1   6
HETATM    6  O   LIG     1      18.385  38.147  24.904  1.00  0.00    -0.773 OA
HETATM    7  H   LIG     1      18.620  38.990  25.412  1.00  0.00     0.167 HD
ENDBRANCH   1   6
TORSDOF 2
ENDMDL
MODEL 6
REMARK VINA RESULT:      -4.1      2.723      3.699
REMARK  2 active torsions:
REMARK  status: ('A' for Active; 'I' for Inactive)
REMARK    1  A    between atoms: C_2  and  C_3 
REMARK    2  A    between atoms: C_3  and  O_4 
ROOT
HETATM    1  C   LIG     1      16.330  38.067  23.480  1.00  0.00     0.170 C 
HETATM    2  O   LIG     1      16.843  38.230  24.619  1.00  0.00    -0.646 OA
ENDROOT
BRANCH   1   3
HETATM    3  C   LIG     1      17.214  37.892  22.301  1.00  0.00     0.002 C 
HETATM    4  C   LIG     1      18.143  39.013  21.920  1.00  0.00     0.054 C 
HETATM    5  C   LIG     1      17.181  36.777  21.561  1.00  0.00     0.025 C 
ENDBRANCH   1   3
BRANCH   1   6
HETATM    6  O   LIG     1      14.939  38.035  23.378  1.00  0.00    -0.773 OA
HETATM    7  H   LIG     1      14.406  38.754  22.905  1.00  0.00     0.167 HD
ENDBRANCH   1   6
TORSDOF 2
ENDMDL
MODEL 7
REMARK VINA RESULT:      -4.1      4.307      5.238
REMARK  2 active torsions:
REMARK  status: ('A' for Active; 'I' for Inactive)
REMARK    1  A    between atoms: C_2  and  C_3 
REMARK    2  A    between atoms: C_3  and  O_4 
ROOT
HETATM    1  C   LIG     1      15.606  34.477  21.043  1.00  0.00     0.170 C 
HETATM    2  O   LIG     1      15.858  33.763  20.037  1.00  0.00    -0.646 OA
ENDROOT
BRANCH   1   3
HETATM    3  C   LIG     1      16.695  35.268  21.666  1.00  0.00     0.002 C 
HETATM    4  C   LIG     1      17.506  36.192  20.797  1.00  0.00     0.054 C 
HETATM    5  C   LIG     1      16.986  35.155  22.968  1.00  0.00     0.025 C 
ENDBRANCH   1   3
BRANCH   1   6
HETATM    6  O   LIG     1      14.294  34.514  21.518  1.00  0.00    -0.773 OA
HETATM    7  H   LIG     1      14.068  34.580  22.502  1.00  0.00     0.167 HD
ENDBRANCH   1   6
TORSDOF 2
ENDMDL
MODEL 8
REMARK VINA RESULT:      -3.9      7.783      8.776
REMARK  2 active torsions:
REMARK  status: ('A' for Active; 'I' for Inactive)
REMARK    1  A    between atoms: C_2  and  C_3 
REMARK    2  A    between atoms: C_3  and  O_4 
ROOT
HETATM    1  C   LIG     1      14.727  32.314  18.112  1.00  0.00     0.170 C 
HETATM    2  O   LIG     1      15.627  32.642  17.294  1.00  0.00    -0.646 OA
ENDROOT
BRANCH   1   3
HETATM    3  C   LIG     1      15.060  32.203  19.554  1.00  0.00     0.002 C 
HETATM    4  C   LIG     1      15.585  33.419  20.270  1.00  0.00     0.054 C 
HETATM    5  C   LIG     1      14.930  31.047  20.215  1.00  0.00     0.025 C 
ENDBRANCH   1   3
BRANCH   1   6
HETATM    6  O   LIG     1      13.438  32.091  17.627  1.00  0.00    -0.773 OA
HETATM    7  H   LIG     1      12.824  31.381  18.007  1.00  0.00     0.167 HD
ENDBRANCH   1   6
TORSDOF 2
ENDMDL
MODEL 9
REMARK VINA RESULT:      -3.8     12.284     12.369
REMARK  2 active torsions:
REMARK  status: ('A' for Active; 'I' for Inactive)
REMARK    1  A    between atoms: C_2  and  C_3 
REMARK    2  A    between atoms: C_3  and  O_4 
ROOT
HETATM    1  C   LIG     1      26.931  37.797  18.680  1.00  0.00     0.170 C 
HETATM    2  O   LIG     1      26.062  37.973  17.785  1.00  0.00    -0.646 OA
ENDROOT
BRANCH   1   3
HETATM    3  C   LIG     1      27.996  38.812  18.871  1.00  0.00     0.002 C 
HETATM    4  C   LIG     1      29.245  38.716  18.037  1.00  0.00     0.054 C 
HETATM    5  C   LIG     1      27.879  39.786  19.782  1.00  0.00     0.025 C 
ENDBRANCH   1   3
BRANCH   1   6
HETATM    6  O   LIG     1      26.841  36.655  19.478  1.00  0.00    -0.773 OA
HETATM    7  H   LIG     1      26.631  35.739  19.102  1.00  0.00     0.167 HD
ENDBRANCH   1   6
TORSDOF 2
ENDMDL
MODEL 10
REMARK VINA RESULT:      -3.8      9.758     10.830
REMARK  2 active torsions:
REMARK  status: ('A' for Active; 'I' for Inactive)
REMARK    1  A    between atoms: C_2  and  C_3 
REMARK    2  A    between atoms: C_3  and  O_4 
ROOT
HETATM    1  C   LIG     1      14.585  32.045  17.422  1.00  0.00     0.170 C 
HETATM    2  O   LIG     1      15.577  32.816  17.343  1.00  0.00    -0.646 OA
ENDROOT
BRANCH   1   3
HETATM    3  C   LIG     1      14.144  31.300  16.217  1.00  0.00     0.002 C 
HETATM    4  C   LIG     1      15.078  31.213  15.039  1.00  0.00     0.054 C 
HETATM    5  C   LIG     1      12.932  30.735  16.147  1.00  0.00     0.025 C 
ENDBRANCH   1   3
BRANCH   1   6
HETATM    6  O   LIG     1      13.951  31.904  18.657  1.00  0.00    -0.773 OA
HETATM    7  H   LIG     1      13.271  31.178  18.845  1.00  0.00     0.167 HD
ENDBRANCH   1   6
TORSDOF 2
ENDMDL
MODEL 11
REMARK VINA RESULT:      -3.8      2.146      2.573
REMARK  2 active torsions:
REMARK  status: ('A' for Active; 'I' for Inactive)
REMARK    1  A    between atoms: C_2  and  C_3 
REMARK    2  A    between atoms: C_3  and  O_4 
ROOT
HETATM    1  C   LIG     1      18.262  36.009  26.050  1.00  0.00     0.170 C 
HETATM    2  O   LIG     1      18.445  34.827  26.445  1.00  0.00    -0.646 OA
ENDROOT
BRANCH   1   3
HETATM    3  C   LIG     1      17.403  36.256  24.866  1.00  0.00     0.002 C 
HETATM    4  C   LIG     1      17.107  35.110  23.935  1.00  0.00     0.054 C 
HETATM    5  C   LIG     1      16.916  37.473  24.596  1.00  0.00     0.025 C 
ENDBRANCH   1   3
BRANCH   1   6
HETATM    6  O   LIG     1      18.860  37.047  26.765  1.00  0.00    -0.773 OA
HETATM    7  H   LIG     1      18.378  37.565  27.488  1.00  0.00     0.167 HD
ENDBRANCH   1   6
TORSDOF 2
ENDMDL
MODEL 12
REMARK VINA RESULT:      -3.8     11.037     11.928
REMARK  2 active torsions:
REMARK  status: ('A' for Active; 'I' for Inactive)
REMARK    1  A    between atoms: C_2  and  C_3 
REMARK    2  A    between atoms: C_3  and  O_4 
ROOT
HETATM    1  C   LIG     1      13.553  30.893  16.687  1.00  0.00     0.170 C 
HETATM    2  O   LIG     1      13.912  31.394  17.784  1.00  0.00    -0.646 OA
ENDROOT
BRANCH   1   3
HETATM    3  C   LIG     1      14.469  30.959  15.521  1.00  0.00     0.002 C 
HETATM    4  C   LIG     1      15.493  32.061  15.468  1.00  0.00     0.054 C 
HETATM    5  C   LIG     1      14.383  30.083  14.512  1.00  0.00     0.025 C 
ENDBRANCH   1   3
BRANCH   1   6
HETATM    6  O   LIG     1      12.307  30.268  16.619  1.00  0.00    -0.773 OA
HETATM    7  H   LIG     1      11.676  30.215  17.409  1.00  0.00     0.167 HD
ENDBRANCH   1   6
TORSDOF 2
ENDMDL
MODEL 13
REMARK VINA RESULT:      -3.8      3.265      3.709
REMARK  2 active torsions:
REMARK  status: ('A' for Active; 'I' for Inactive)
REMARK    1  A    between atoms: C_2  and  C_3 
REMARK    2  A    between atoms: C_3  and  O_4 
ROOT
HETATM    1  C   LIG     1      16.208  37.512  22.523  1.00  0.00     0.170 C 
HETATM    2  O   LIG     1      17.259  38.167  22.291  1.00  0.00    -0.646 OA
ENDROOT
BRANCH   1   3
HETATM    3  C   LIG     1      16.104  36.111  22.047  1.00  0.00     0.002 C 
HETATM    4  C   LIG     1      14.889  35.704  21.257  1.00  0.00     0.054 C 
HETATM    5  C   LIG     1      17.047  35.204  22.329  1.00  0.00     0.025 C 
ENDBRANCH   1   3
BRANCH   1   6
HETATM    6  O   LIG     1      15.188  38.131  23.247  1.00  0.00    -0.773 OA
HETATM    7  H   LIG     1      14.312  37.671  23.463  1.00  0.00     0.167 HD
ENDBRANCH   1   6
TORSDOF 2
ENDMDL
MODEL 14
REMARK VINA RESULT:      -3.7     11.934     12.817
REMARK  2 active torsions:
REMARK  status: ('A' for Active; 'I' for Inactive)
REMARK    1  A    between atoms: C_2  and  C_3 
REMARK    2  A    between atoms: C_3  and  O_4 
ROOT
HETATM    1  C   LIG     1      15.890  31.905  14.138  1.00  0.00     0.170 C 
HETATM    2  O   LIG     1      15.879  32.887  14.927  1.00  0.00    -0.646 OA
ENDROOT
BRANCH   1   3
HETATM    3  C   LIG     1      15.094  30.698  14.468  1.00  0.00     0.002 C 
HETATM    4  C   LIG     1      14.087  30.778  15.584  1.00  0.00     0.054 C 
HETATM    5  C   LIG     1      15.273  29.542  13.818  1.00  0.00     0.025 C 
ENDBRANCH   1   3
BRANCH   1   6
HETATM    6  O   LIG     1      16.639  32.005  12.964  1.00  0.00    -0.773 OA
HETATM    7  H   LIG     1      17.650  32.016  12.958  1.00  0.00     0.167 HD
ENDBRANCH   1   6
TORSDOF 2
ENDMDL
MODEL 15
REMARK VINA RESULT:      -3.7      4.811      5.592
REMARK  2 active torsions:
REMARK  status: ('A' for Active; 'I' for Inactive)
REMARK    1  A    between atoms: C_2  and  C_3 
REMARK    2  A    between atoms: C_3  and  O_4 
ROOT
HETATM    1  C   LIG     1      18.324  36.979  20.313  1.00  0.00     0.170 C 
HETATM    2  O   LIG     1      17.418  36.196  20.703  1.00  0.00    -0.646 OA
ENDROOT
BRANCH   1   3
HETATM    3  C   LIG     1      18.412  38.339  20.897  1.00  0.00     0.002 C 
HETATM    4  C   LIG     1      17.538  38.678  22.075  1.00  0.00     0.054 C 
HETATM    5  C   LIG     1      19.225  39.271  20.384  1.00  0.00     0.025 C 
ENDBRANCH   1   3
BRANCH   1   6
HETATM    6  O   LIG     1      19.231  36.520  19.356  1.00  0.00    -0.773 OA
HETATM    7  H   LIG     1      20.115  36.093  19.598  1.00  0.00     0.167 HD
ENDBRANCH   1   6
TORSDOF 2
ENDMDL
MODEL 16
REMARK VINA RESULT:      -3.6      4.211      5.014
REMARK  2 active torsions:
REMARK  status: ('A' for Active; 'I' for Inactive)
REMARK    1  A    between atoms: C_2  and  C_3 
REMARK    2  A    between atoms: C_3  and  O_4 
ROOT
HETATM    1  C   LIG     1      17.847  36.687  20.597  1.00  0.00     0.170 C 
HETATM    2  O   LIG     1      18.542  36.426  19.580  1.00  0.00    -0.646 OA
ENDROOT
BRANCH   1   3
HETATM    3  C   LIG     1      16.878  35.679  21.094  1.00  0.00     0.002 C 
HETATM    4  C   LIG     1      16.985  35.216  22.523  1.00  0.00     0.054 C 
HETATM    5  C   LIG     1      15.939  35.157  20.296  1.00  0.00     0.025 C 
ENDBRANCH   1   3
BRANCH   1   6
HETATM    6  O   LIG     1      18.037  37.914  21.234  1.00  0.00    -0.773 OA
HETATM    7  H   LIG     1      18.936  38.376  21.278  1.00  0.00     0.167 HD
ENDBRANCH   1   6
TORSDOF 2
ENDMDL
MODEL 17
REMARK VINA RESULT:      -3.6     12.461     13.237
REMARK  2 active torsions:
REMARK  status: ('A' for Active; 'I' for Inactive)
REMARK    1  A    between atoms: C_2  and  C_3 
REMARK    2  A    between atoms: C_3  and  O_4 
ROOT
HETATM    1  C   LIG     1      14.700  29.882  14.104  1.00  0.00     0.170 C 
HETATM    2  O   LIG     1      15.720  30.080  13.392  1.00  0.00    -0.646 OA
ENDROOT
BRANCH   1   3
HETATM    3  C   LIG     1      14.403  30.809  15.223  1.00  0.00     0.002 C 
HETATM    4  C   LIG     1      13.113  30.640  15.980  1.00  0.00     0.054 C 
HETATM    5  C   LIG     1      15.240  31.802  15.551  1.00  0.00     0.025 C 
ENDBRANCH   1   3
BRANCH   1   6
HETATM    6  O   LIG     1      13.871  28.804  13.791  1.00  0.00    -0.773 OA
HETATM    7  H   LIG     1      14.018  28.216  12.980  1.00  0.00     0.167 HD
ENDBRANCH   1   6
TORSDOF 2
ENDMDL
MODEL 18
REMARK VINA RESULT:      -3.5      8.708      9.916
REMARK  2 active torsions:
REMARK  status: ('A' for Active; 'I' for Inactive)
REMARK    1  A    between atoms: C_2  and  C_3 
REMARK    2  A    between atoms: C_3  and  O_4 
ROOT
HETATM    1  C   LIG     1      14.712  32.164  18.395  1.00  0.00     0.170 C 
HETATM    2  O   LIG     1      14.401  31.289  19.247  1.00  0.00    -0.646 OA
ENDROOT
BRANCH   1   3
HETATM    3  C   LIG     1      14.439  31.911  16.959  1.00  0.00     0.002 C 
HETATM    4  C   LIG     1      15.408  32.439  15.935  1.00  0.00     0.054 C 
HETATM    5  C   LIG     1      13.344  31.253  16.560  1.00  0.00     0.025 C 
ENDBRANCH   1   3
BRANCH   1   6
HETATM    6  O   LIG     1      15.283  33.355  18.846  1.00  0.00    -0.773 OA
HETATM    7  H   LIG     1      15.653  33.466  19.781  1.00  0.00     0.167 HD
ENDBRANCH   1   6
TORSDOF 2
ENDMDL
MODEL 19
REMARK VINA RESULT:      -3.5      8.587      9.832
REMARK  2 active torsions:
REMARK  status: ('A' for Active; 'I' for Inactive)
REMARK    1  A    between atoms: C_2  and  C_3 
REMARK    2  A    between atoms: C_3  and  O_4 
ROOT
HETATM    1  C   LIG     1      15.319  33.427  16.697  1.00  0.00     0.170 C 
HETATM    2  O   LIG     1      15.511  34.569  17.191  1.00  0.00    -0.646 OA
ENDROOT
BRANCH   1   3
HETATM    3  C   LIG     1      14.643  32.386  17.510  1.00  0.00     0.002 C 
HETATM    4  C   LIG     1      15.050  32.215  18.950  1.00  0.00     0.054 C 
HETATM    5  C   LIG     1      13.708  31.585  16.985  1.00  0.00     0.025 C 
ENDBRANCH   1   3
BRANCH   1   6
HETATM    6  O   LIG     1      15.733  33.193  15.385  1.00  0.00    -0.773 OA
HETATM    7  H   LIG     1      15.680  32.283  14.946  1.00  0.00     0.167 HD
ENDBRANCH   1   6
TORSDOF 2
ENDMDL
MODEL 20
REMARK VINA RESULT:      -3.5     12.914     13.373
REMARK  2 active torsions:
REMARK  status: ('A' for Active; 'I' for Inactive)
REMARK    1  A    between atoms: C_2  and  C_3 
REMARK    2  A    between atoms: C_3  and  O_4 
ROOT
HETATM    1  C   LIG     1      14.149  29.577  14.209  1.00  0.00     0.170 C 
HETATM    2  O   LIG     1      13.112  28.863  14.182  1.00  0.00    -0.646 OA
ENDROOT
BRANCH   1   3
HETATM    3  C   LIG     1      14.257  30.666  15.211  1.00  0.00     0.002 C 
HETATM    4  C   LIG     1      15.430  31.607  15.132  1.00  0.00     0.054 C 
HETATM    5  C   LIG     1      13.357  30.807  16.191  1.00  0.00     0.025 C 
ENDBRANCH   1   3
BRANCH   1   6
HETATM    6  O   LIG     1      15.172  29.295  13.303  1.00  0.00    -0.773 OA
HETATM    7  H   LIG     1      15.477  29.952  12.597  1.00  0.00     0.167 HD
ENDBRANCH   1   6
TORSDOF 2
ENDMDL
