REMARK  2 active torsions:
REMARK  status: ('A' for Active; 'I' for Inactive)
REMARK    1  A    between atoms: C_2  and  C_3 
REMARK    2  A    between atoms: C_3  and  O_4 
ROOT
HETATM    1  C   LIG     1       1.026  -0.560  -0.697  1.00  0.00     0.170 C 
HETATM    2  O   LIG     1       0.804  -1.176  -1.773  1.00  0.00    -0.646 OA
ENDROOT
BRANCH   1   3
HETATM    3  C   LIG     1      -0.101   0.091   0.015  1.00  0.00     0.002 C 
HETATM    4  C   LIG     1      -1.507  -0.333  -0.316  1.00  0.00     0.054 C 
HETATM    5  C   LIG     1       0.106   1.059   0.916  1.00  0.00     0.025 C 
ENDBRANCH   1   3
BRANCH   1   6
HETATM    6  O   LIG     1       2.331  -0.537  -0.203  1.00  0.00    -0.773 OA
HETATM    7  H   LIG     1       2.567  -0.160   0.706  1.00  0.00     0.167 HD
ENDBRANCH   1   6
TORSDOF 2
