REMARK  8 active torsions:
REMARK  status: ('A' for Active; 'I' for Inactive)
REMARK    1  A    between atoms: O_1  and  C_2 
REMARK    2  A    between atoms: C_4  and  N_11 
REMARK    3  A    between atoms: C_5  and  O_6 
REMARK    4  A    between atoms: C_7  and  C_8 
REMARK       I    between atoms: C_8  and  N_9 
REMARK    5  A    between atoms: C_14  and  O_15 
REMARK    6  A    between atoms: C_20  and  O_21 
REMARK    7  A    between atoms: C_22  and  O_24 
REMARK    8  A    between atoms: C_27  and  O_28 
ROOT
HETATM    1  C   LIG     1      -0.970   1.488  -1.032  1.00  0.00     0.180 C 
HETATM    2  C   LIG     1      -1.278  -0.015  -1.176  1.00  0.00     0.104 C 
HETATM    3  C   LIG     1      -1.996  -0.591   0.100  1.00  0.00     0.289 C 
HETATM    4  C   LIG     1      -2.967   0.381   0.782  1.00  0.00     0.096 C 
HETATM    5  C   LIG     1      -3.137   1.651   0.349  1.00  0.00     0.112 C 
HETATM    6  C   LIG     1       0.052   1.665   0.087  1.00  0.00     0.097 C 
HETATM    7  C   LIG     1       1.087   0.800   0.193  1.00  0.00     0.035 C 
HETATM    8  C   LIG     1       2.104   0.964   1.255  1.00  0.00     0.195 C 
HETATM    9  O   LIG     1       1.806   1.525   2.345  1.00  0.00    -0.287 OA
HETATM   10  C   LIG     1       1.350  -0.204  -0.925  1.00  0.00     0.093 C 
HETATM   11  C   LIG     1       0.024  -0.796  -1.550  1.00  0.00     0.140 C 
HETATM   12  C   LIG     1       2.447  -1.280  -0.556  1.00  0.00     0.092 C 
HETATM   13  C   LIG     1       2.878  -2.006  -1.858  1.00  0.00     0.052 C 
HETATM   14  C   LIG     1       3.664  -0.625   0.130  1.00  0.00    -0.007 A 
HETATM   15  C   LIG     1       3.466   0.438   1.044  1.00  0.00     0.057 A 
HETATM   16  C   LIG     1       4.567   0.994   1.737  1.00  0.00     0.080 A 
HETATM   17  C   LIG     1       5.850   0.475   1.542  1.00  0.00     0.037 A 
HETATM   18  C   LIG     1       6.049  -0.591   0.672  1.00  0.00     0.003 A 
HETATM   19  C   LIG     1       4.973  -1.144  -0.019  1.00  0.00     0.011 A 
HETATM   20  C   LIG     1      -2.273   2.183  -0.722  1.00  0.00     0.208 C 
HETATM   21  O   LIG     1      -2.598   3.234  -1.340  1.00  0.00    -0.288 OA
ENDROOT
BRANCH   5  22
HETATM   22  C   LIG     1      -4.111   2.566   0.979  1.00  0.00     0.255 C 
HETATM   23  N   LIG     1      -5.147   3.165   0.199  1.00  0.00    -0.366 N 
HETATM   24  H   LIG     1      -5.266   2.920  -0.808  1.00  0.00     0.159 HD
HETATM   25  H   LIG     1      -5.816   3.835   0.639  1.00  0.00     0.159 HD
HETATM   26  O   LIG     1      -4.013   2.846   2.203  1.00  0.00    -0.268 OA
ENDBRANCH   5  22
BRANCH   4  27
HETATM   27  O   LIG     1      -3.682  -0.109   1.881  1.00  0.00    -0.362 OA
HETATM   28  H   LIG     1      -4.410   0.405   2.360  1.00  0.00     0.217 HD
ENDBRANCH   4  27
BRANCH   3  29
HETATM   29  N   LIG     1      -2.650  -1.884  -0.254  1.00  0.00     0.091 N 
HETATM   30  C   LIG     1      -4.010  -1.762  -0.811  1.00  0.00     0.310 C 
HETATM   31  C   LIG     1      -2.609  -2.871   0.837  1.00  0.00     0.310 C 
ENDBRANCH   3  29
BRANCH   1  32
HETATM   32  O   LIG     1      -0.442   1.969  -2.247  1.00  0.00    -0.374 OA
HETATM   33  H   LIG     1      -0.137   2.904  -2.099  1.00  0.00     0.211 HD
ENDBRANCH   1  32
BRANCH   6  34
HETATM   34  O   LIG     1      -0.060   2.732   0.987  1.00  0.00    -0.361 OA
HETATM   35  H   LIG     1      -0.768   3.449   0.908  1.00  0.00     0.217 HD
ENDBRANCH   6  34
BRANCH  11  36
HETATM   36  O   LIG     1      -0.127  -2.164  -1.259  1.00  0.00    -0.394 OA
HETATM   37  H   LIG     1      -0.676  -2.559  -1.987  1.00  0.00     0.210 HD
ENDBRANCH  11  36
BRANCH  12  38
HETATM   38  O   LIG     1       1.923  -2.248   0.324  1.00  0.00    -0.385 OA
HETATM   39  H   LIG     1       1.563  -1.781   1.122  1.00  0.00     0.211 HD
ENDBRANCH  12  38
BRANCH  16  40
HETATM   40  O   LIG     1       4.389   2.069   2.609  1.00  0.00    -0.360 OA
HETATM   41  H   LIG     1       5.166   2.482   3.111  1.00  0.00     0.217 HD
ENDBRANCH  16  40
TORSDOF 8
