MODEL 1
REMARK VINA RESULT:      -4.6      0.000      0.000
REMARK  8 active torsions:
REMARK  status: ('A' for Active; 'I' for Inactive)
REMARK    1  A    between atoms: O_1  and  C_2 
REMARK    2  A    between atoms: C_4  and  N_11 
REMARK    3  A    between atoms: C_5  and  O_6 
REMARK    4  A    between atoms: C_7  and  C_8 
REMARK       I    between atoms: C_8  and  N_9 
REMARK    5  A    between atoms: C_14  and  O_15 
REMARK    6  A    between atoms: C_20  and  O_21 
REMARK    7  A    between atoms: C_22  and  O_24 
REMARK    8  A    between atoms: C_27  and  O_28 
ROOT
HETATM    1  C   LIG     1      26.369  24.097  19.724  1.00  0.00     0.180 C 
HETATM    2  C   LIG     1      25.551  23.313  20.769  1.00  0.00     0.104 C 
HETATM    3  C   LIG     1      26.477  22.498  21.746  1.00  0.00     0.289 C 
HETATM    4  C   LIG     1      27.804  23.185  22.093  1.00  0.00     0.096 C 
HETATM    5  C   LIG     1      28.166  24.368  21.547  1.00  0.00     0.112 C 
HETATM    6  C   LIG     1      27.081  23.095  18.820  1.00  0.00     0.097 C 
HETATM    7  C   LIG     1      26.427  21.987  18.402  1.00  0.00     0.035 C 
HETATM    8  C   LIG     1      27.088  21.012  17.506  1.00  0.00     0.195 C 
HETATM    9  O   LIG     1      28.343  20.880  17.519  1.00  0.00    -0.287 OA
HETATM   10  C   LIG     1      24.928  21.854  18.650  1.00  0.00     0.093 C 
HETATM   11  C   LIG     1      24.481  22.424  20.056  1.00  0.00     0.140 C 
HETATM   12  C   LIG     1      24.359  20.421  18.304  1.00  0.00     0.092 C 
HETATM   13  C   LIG     1      22.811  20.508  18.254  1.00  0.00     0.052 C 
HETATM   14  C   LIG     1      24.919  19.907  16.961  1.00  0.00    -0.007 A 
HETATM   15  C   LIG     1      26.266  20.170  16.616  1.00  0.00     0.057 A 
HETATM   16  C   LIG     1      26.812  19.638  15.424  1.00  0.00     0.080 A 
HETATM   17  C   LIG     1      26.028  18.827  14.598  1.00  0.00     0.037 A 
HETATM   18  C   LIG     1      24.714  18.536  14.946  1.00  0.00     0.003 A 
HETATM   19  C   LIG     1      24.165  19.057  16.115  1.00  0.00     0.011 A 
HETATM   20  C   LIG     1      27.342  24.967  20.480  1.00  0.00     0.208 C 
HETATM   21  O   LIG     1      27.484  26.183  20.171  1.00  0.00    -0.288 OA
ENDROOT
BRANCH   5  22
HETATM   22  C   LIG     1      29.422  25.049  21.924  1.00  0.00     0.255 C 
HETATM   23  N   LIG     1      30.357  25.445  20.920  1.00  0.00    -0.366 N 
HETATM   24  H   LIG     1      30.141  25.314  19.908  1.00  0.00     0.159 HD
HETATM   25  H   LIG     1      31.258  25.899  21.190  1.00  0.00     0.159 HD
HETATM   26  O   LIG     1      29.687  25.256  23.138  1.00  0.00    -0.268 OA
ENDBRANCH   5  22
BRANCH   4  27
HETATM   27  O   LIG     1      28.631  22.531  23.014  1.00  0.00    -0.362 OA
HETATM   28  H   LIG     1      29.122  21.668  22.822  1.00  0.00     0.217 HD
ENDBRANCH   4  27
BRANCH   3  29
HETATM   29  N   LIG     1      25.696  22.135  22.964  1.00  0.00     0.091 N 
HETATM   30  C   LIG     1      25.635  23.182  24.000  1.00  0.00     0.310 C 
HETATM   31  C   LIG     1      26.091  20.840  23.540  1.00  0.00     0.310 C 
ENDBRANCH   3  29
BRANCH   1  32
HETATM   32  O   LIG     1      25.495  24.898  18.961  1.00  0.00    -0.374 OA
HETATM   33  H   LIG     1      24.896  24.293  18.446  1.00  0.00     0.211 HD
ENDBRANCH   1  32
BRANCH   6  34
HETATM   34  O   LIG     1      28.395  23.330  18.399  1.00  0.00    -0.361 OA
HETATM   35  H   LIG     1      28.832  24.241  18.433  1.00  0.00     0.217 HD
ENDBRANCH   6  34
BRANCH  11  36
HETATM   36  O   LIG     1      24.042  21.403  20.919  1.00  0.00    -0.394 OA
HETATM   37  H   LIG     1      24.014  21.786  21.835  1.00  0.00     0.210 HD
ENDBRANCH  11  36
BRANCH  12  38
HETATM   38  O   LIG     1      24.707  19.490  19.303  1.00  0.00    -0.385 OA
HETATM   39  H   LIG     1      25.400  18.882  18.934  1.00  0.00     0.211 HD
ENDBRANCH  12  38
BRANCH  16  40
HETATM   40  O   LIG     1      28.126  19.925  15.053  1.00  0.00    -0.360 OA
HETATM   41  H   LIG     1      28.820  19.194  14.943  1.00  0.00     0.217 HD
ENDBRANCH  16  40
TORSDOF 8
ENDMDL
MODEL 2
REMARK VINA RESULT:      -4.5      2.455      7.479
REMARK  8 active torsions:
REMARK  status: ('A' for Active; 'I' for Inactive)
REMARK    1  A    between atoms: O_1  and  C_2 
REMARK    2  A    between atoms: C_4  and  N_11 
REMARK    3  A    between atoms: C_5  and  O_6 
REMARK    4  A    between atoms: C_7  and  C_8 
REMARK       I    between atoms: C_8  and  N_9 
REMARK    5  A    between atoms: C_14  and  O_15 
REMARK    6  A    between atoms: C_20  and  O_21 
REMARK    7  A    between atoms: C_22  and  O_24 
REMARK    8  A    between atoms: C_27  and  O_28 
ROOT
HETATM    1  C   LIG     1      25.874  23.152  19.654  1.00  0.00     0.180 C 
HETATM    2  C   LIG     1      27.336  22.684  19.516  1.00  0.00     0.104 C 
HETATM    3  C   LIG     1      27.469  21.124  19.668  1.00  0.00     0.289 C 
HETATM    4  C   LIG     1      26.296  20.322  19.090  1.00  0.00     0.096 C 
HETATM    5  C   LIG     1      25.210  20.922  18.551  1.00  0.00     0.112 C 
HETATM    6  C   LIG     1      25.411  22.872  21.080  1.00  0.00     0.097 C 
HETATM    7  C   LIG     1      26.247  23.114  22.116  1.00  0.00     0.035 C 
HETATM    8  C   LIG     1      25.813  22.873  23.510  1.00  0.00     0.195 C 
HETATM    9  O   LIG     1      24.937  22.002  23.766  1.00  0.00    -0.287 OA
HETATM   10  C   LIG     1      27.552  23.866  21.875  1.00  0.00     0.093 C 
HETATM   11  C   LIG     1      28.248  23.475  20.510  1.00  0.00     0.140 C 
HETATM   12  C   LIG     1      28.512  23.876  23.130  1.00  0.00     0.092 C 
HETATM   13  C   LIG     1      29.615  24.942  22.895  1.00  0.00     0.052 C 
HETATM   14  C   LIG     1      27.732  24.177  24.427  1.00  0.00    -0.007 A 
HETATM   15  C   LIG     1      26.435  23.638  24.607  1.00  0.00     0.057 A 
HETATM   16  C   LIG     1      25.743  23.843  25.824  1.00  0.00     0.080 A 
HETATM   17  C   LIG     1      26.351  24.554  26.863  1.00  0.00     0.037 A 
HETATM   18  C   LIG     1      27.637  25.057  26.707  1.00  0.00     0.003 A 
HETATM   19  C   LIG     1      28.327  24.865  25.512  1.00  0.00     0.011 A 
HETATM   20  C   LIG     1      25.063  22.388  18.636  1.00  0.00     0.208 C 
HETATM   21  O   LIG     1      24.236  22.989  17.898  1.00  0.00    -0.288 OA
ENDROOT
BRANCH   5  22
HETATM   22  C   LIG     1      24.107  20.145  17.950  1.00  0.00     0.255 C 
HETATM   23  N   LIG     1      22.759  20.361  18.371  1.00  0.00    -0.366 N 
HETATM   24  H   LIG     1      22.529  21.108  19.062  1.00  0.00     0.159 HD
HETATM   25  H   LIG     1      21.984  19.789  17.968  1.00  0.00     0.159 HD
HETATM   26  O   LIG     1      24.354  19.264  17.084  1.00  0.00    -0.268 OA
ENDBRANCH   5  22
BRANCH   4  27
HETATM   27  O   LIG     1      26.400  18.927  19.139  1.00  0.00    -0.362 OA
HETATM   28  H   LIG     1      27.277  18.422  19.124  1.00  0.00     0.217 HD
ENDBRANCH   4  27
BRANCH   3  29
HETATM   29  N   LIG     1      28.779  20.691  19.102  1.00  0.00     0.091 N 
HETATM   30  C   LIG     1      28.819  20.587  17.632  1.00  0.00     0.310 C 
HETATM   31  C   LIG     1      29.309  19.473  19.736  1.00  0.00     0.310 C 
ENDBRANCH   3  29
BRANCH   1  32
HETATM   32  O   LIG     1      25.806  24.535  19.388  1.00  0.00    -0.374 OA
HETATM   33  H   LIG     1      26.664  24.808  18.967  1.00  0.00     0.211 HD
ENDBRANCH   1  32
BRANCH   6  34
HETATM   34  O   LIG     1      24.118  22.393  21.324  1.00  0.00    -0.361 OA
HETATM   35  H   LIG     1      23.292  22.970  21.250  1.00  0.00     0.217 HD
ENDBRANCH   6  34
BRANCH  11  36
HETATM   36  O   LIG     1      29.457  22.786  20.718  1.00  0.00    -0.394 OA
HETATM   37  H   LIG     1      29.238  21.958  21.223  1.00  0.00     0.210 HD
ENDBRANCH  11  36
BRANCH  12  38
HETATM   38  O   LIG     1      29.145  22.627  23.285  1.00  0.00    -0.385 OA
HETATM   39  H   LIG     1      30.117  22.748  23.122  1.00  0.00     0.211 HD
ENDBRANCH  12  38
BRANCH  16  40
HETATM   40  O   LIG     1      24.449  23.352  25.997  1.00  0.00    -0.360 OA
HETATM   41  H   LIG     1      23.908  23.557  26.829  1.00  0.00     0.217 HD
ENDBRANCH  16  40
TORSDOF 8
ENDMDL
MODEL 3
REMARK VINA RESULT:      -4.5      3.178      7.358
REMARK  8 active torsions:
REMARK  status: ('A' for Active; 'I' for Inactive)
REMARK    1  A    between atoms: O_1  and  C_2 
REMARK    2  A    between atoms: C_4  and  N_11 
REMARK    3  A    between atoms: C_5  and  O_6 
REMARK    4  A    between atoms: C_7  and  C_8 
REMARK       I    between atoms: C_8  and  N_9 
REMARK    5  A    between atoms: C_14  and  O_15 
REMARK    6  A    between atoms: C_20  and  O_21 
REMARK    7  A    between atoms: C_22  and  O_24 
REMARK    8  A    between atoms: C_27  and  O_28 
ROOT
HETATM    1  C   LIG     1      23.963  21.972  20.541  1.00  0.00     0.180 C 
HETATM    2  C   LIG     1      25.371  22.377  21.017  1.00  0.00     0.104 C 
HETATM    3  C   LIG     1      26.427  21.239  20.759  1.00  0.00     0.289 C 
HETATM    4  C   LIG     1      26.198  20.432  19.475  1.00  0.00     0.096 C 
HETATM    5  C   LIG     1      25.134  20.649  18.669  1.00  0.00     0.112 C 
HETATM    6  C   LIG     1      23.479  20.809  21.403  1.00  0.00     0.097 C 
HETATM    7  C   LIG     1      23.712  20.820  22.735  1.00  0.00     0.035 C 
HETATM    8  C   LIG     1      23.233  19.716  23.596  1.00  0.00     0.195 C 
HETATM    9  O   LIG     1      23.082  18.556  23.123  1.00  0.00    -0.287 OA
HETATM   10  C   LIG     1      24.253  22.084  23.398  1.00  0.00     0.093 C 
HETATM   11  C   LIG     1      25.321  22.839  22.510  1.00  0.00     0.140 C 
HETATM   12  C   LIG     1      24.677  21.869  24.905  1.00  0.00     0.092 C 
HETATM   13  C   LIG     1      24.868  23.262  25.563  1.00  0.00     0.052 C 
HETATM   14  C   LIG     1      23.620  21.046  25.671  1.00  0.00    -0.007 A 
HETATM   15  C   LIG     1      22.963  19.972  25.023  1.00  0.00     0.057 A 
HETATM   16  C   LIG     1      22.049  19.163  25.739  1.00  0.00     0.080 A 
HETATM   17  C   LIG     1      21.815  19.404  27.095  1.00  0.00     0.037 A 
HETATM   18  C   LIG     1      22.481  20.435  27.748  1.00  0.00     0.003 A 
HETATM   19  C   LIG     1      23.380  21.242  27.053  1.00  0.00     0.011 A 
HETATM   20  C   LIG     1      24.076  21.588  19.086  1.00  0.00     0.208 C 
HETATM   21  O   LIG     1      23.246  22.029  18.244  1.00  0.00    -0.288 OA
ENDROOT
BRANCH   5  22
HETATM   22  C   LIG     1      24.947  19.903  17.407  1.00  0.00     0.255 C 
HETATM   23  N   LIG     1      23.740  19.176  17.172  1.00  0.00    -0.366 N 
HETATM   24  H   LIG     1      22.954  19.210  17.857  1.00  0.00     0.159 HD
HETATM   25  H   LIG     1      23.621  18.624  16.293  1.00  0.00     0.159 HD
HETATM   26  O   LIG     1      25.865  19.880  16.546  1.00  0.00    -0.268 OA
ENDBRANCH   5  22
BRANCH   4  27
HETATM   27  O   LIG     1      27.150  19.453  19.167  1.00  0.00    -0.362 OA
HETATM   28  H   LIG     1      26.942  18.467  19.078  1.00  0.00     0.217 HD
ENDBRANCH   4  27
BRANCH   3  29
HETATM   29  N   LIG     1      27.797  21.826  20.818  1.00  0.00     0.091 N 
HETATM   30  C   LIG     1      28.219  22.546  19.603  1.00  0.00     0.310 C 
HETATM   31  C   LIG     1      28.822  20.860  21.247  1.00  0.00     0.310 C 
ENDBRANCH   3  29
BRANCH   1  32
HETATM   32  O   LIG     1      23.093  23.072  20.685  1.00  0.00    -0.374 OA
HETATM   33  H   LIG     1      22.807  23.113  21.637  1.00  0.00     0.211 HD
ENDBRANCH   1  32
BRANCH   6  34
HETATM   34  O   LIG     1      22.774  19.746  20.827  1.00  0.00    -0.361 OA
HETATM   35  H   LIG     1      23.115  19.222  20.032  1.00  0.00     0.217 HD
ENDBRANCH   6  34
BRANCH  11  36
HETATM   36  O   LIG     1      26.607  22.788  23.079  1.00  0.00    -0.394 OA
HETATM   37  H   LIG     1      26.728  23.623  23.604  1.00  0.00     0.210 HD
ENDBRANCH  11  36
BRANCH  12  38
HETATM   38  O   LIG     1      25.904  21.181  24.988  1.00  0.00    -0.385 OA
HETATM   39  H   LIG     1      26.571  21.785  25.406  1.00  0.00     0.211 HD
ENDBRANCH  12  38
BRANCH  16  40
HETATM   40  O   LIG     1      21.365  18.127  25.100  1.00  0.00    -0.360 OA
HETATM   41  H   LIG     1      21.799  17.228  24.929  1.00  0.00     0.217 HD
ENDBRANCH  16  40
TORSDOF 8
ENDMDL
MODEL 4
REMARK VINA RESULT:      -4.5      3.097      8.029
REMARK  8 active torsions:
REMARK  status: ('A' for Active; 'I' for Inactive)
REMARK    1  A    between atoms: O_1  and  C_2 
REMARK    2  A    between atoms: C_4  and  N_11 
REMARK    3  A    between atoms: C_5  and  O_6 
REMARK    4  A    between atoms: C_7  and  C_8 
REMARK       I    between atoms: C_8  and  N_9 
REMARK    5  A    between atoms: C_14  and  O_15 
REMARK    6  A    between atoms: C_20  and  O_21 
REMARK    7  A    between atoms: C_22  and  O_24 
REMARK    8  A    between atoms: C_27  and  O_28 
ROOT
HETATM    1  C   LIG     1      27.657  21.875  22.716  1.00  0.00     0.180 C 
HETATM    2  C   LIG     1      26.130  21.706  22.831  1.00  0.00     0.104 C 
HETATM    3  C   LIG     1      25.355  22.808  22.017  1.00  0.00     0.289 C 
HETATM    4  C   LIG     1      26.034  23.233  20.709  1.00  0.00     0.096 C 
HETATM    5  C   LIG     1      27.234  22.740  20.328  1.00  0.00     0.112 C 
HETATM    6  C   LIG     1      28.049  23.187  23.390  1.00  0.00     0.097 C 
HETATM    7  C   LIG     1      27.465  23.541  24.558  1.00  0.00     0.035 C 
HETATM    8  C   LIG     1      27.845  24.796  25.243  1.00  0.00     0.195 C 
HETATM    9  O   LIG     1      28.281  25.778  24.583  1.00  0.00    -0.287 OA
HETATM   10  C   LIG     1      26.593  22.535  25.302  1.00  0.00     0.093 C 
HETATM   11  C   LIG     1      25.708  21.649  24.336  1.00  0.00     0.140 C 
HETATM   12  C   LIG     1      25.812  23.164  26.524  1.00  0.00     0.092 C 
HETATM   13  C   LIG     1      25.256  22.009  27.397  1.00  0.00     0.052 C 
HETATM   14  C   LIG     1      26.729  24.084  27.358  1.00  0.00    -0.007 A 
HETATM   15  C   LIG     1      27.681  24.904  26.705  1.00  0.00     0.057 A 
HETATM   16  C   LIG     1      28.472  25.807  27.453  1.00  0.00     0.080 A 
HETATM   17  C   LIG     1      28.295  25.914  28.836  1.00  0.00     0.037 A 
HETATM   18  C   LIG     1      27.338  25.137  29.480  1.00  0.00     0.003 A 
HETATM   19  C   LIG     1      26.556  24.241  28.755  1.00  0.00     0.011 A 
HETATM   20  C   LIG     1      27.996  21.872  21.246  1.00  0.00     0.208 C 
HETATM   21  O   LIG     1      28.952  21.170  20.813  1.00  0.00    -0.288 OA
ENDROOT
BRANCH   5  22
HETATM   22  C   LIG     1      27.859  23.116  19.043  1.00  0.00     0.255 C 
HETATM   23  N   LIG     1      29.175  23.672  19.016  1.00  0.00    -0.366 N 
HETATM   24  H   LIG     1      29.733  23.765  19.892  1.00  0.00     0.159 HD
HETATM   25  H   LIG     1      29.603  23.965  18.110  1.00  0.00     0.159 HD
HETATM   26  O   LIG     1      27.221  22.975  17.966  1.00  0.00    -0.268 OA
ENDBRANCH   5  22
BRANCH   4  27
HETATM   27  O   LIG     1      25.349  24.160  19.916  1.00  0.00    -0.362 OA
HETATM   28  H   LIG     1      25.332  25.156  20.092  1.00  0.00     0.217 HD
ENDBRANCH   4  27
BRANCH   3  29
HETATM   29  N   LIG     1      23.951  22.352  21.800  1.00  0.00     0.091 N 
HETATM   30  C   LIG     1      23.782  21.340  20.742  1.00  0.00     0.310 C 
HETATM   31  C   LIG     1      23.002  23.464  21.629  1.00  0.00     0.310 C 
ENDBRANCH   3  29
BRANCH   1  32
HETATM   32  O   LIG     1      28.290  20.794  23.361  1.00  0.00    -0.374 OA
HETATM   33  H   LIG     1      27.614  20.339  23.931  1.00  0.00     0.211 HD
ENDBRANCH   1  32
BRANCH   6  34
HETATM   34  O   LIG     1      29.027  24.012  22.821  1.00  0.00    -0.361 OA
HETATM   35  H   LIG     1      29.961  23.692  22.604  1.00  0.00     0.217 HD
ENDBRANCH   6  34
BRANCH  11  36
HETATM   36  O   LIG     1      24.338  21.935  24.471  1.00  0.00    -0.394 OA
HETATM   37  H   LIG     1      23.962  21.275  25.111  1.00  0.00     0.210 HD
ENDBRANCH  11  36
BRANCH  12  38
HETATM   38  O   LIG     1      24.719  23.932  26.077  1.00  0.00    -0.385 OA
HETATM   39  H   LIG     1      24.732  24.802  26.556  1.00  0.00     0.211 HD
ENDBRANCH  12  38
BRANCH  16  40
HETATM   40  O   LIG     1      29.442  26.590  26.826  1.00  0.00    -0.360 OA
HETATM   41  H   LIG     1      29.253  27.542  26.536  1.00  0.00     0.217 HD
ENDBRANCH  16  40
TORSDOF 8
ENDMDL
MODEL 5
REMARK VINA RESULT:      -4.4      3.170      5.103
REMARK  8 active torsions:
REMARK  status: ('A' for Active; 'I' for Inactive)
REMARK    1  A    between atoms: O_1  and  C_2 
REMARK    2  A    between atoms: C_4  and  N_11 
REMARK    3  A    between atoms: C_5  and  O_6 
REMARK    4  A    between atoms: C_7  and  C_8 
REMARK       I    between atoms: C_8  and  N_9 
REMARK    5  A    between atoms: C_14  and  O_15 
REMARK    6  A    between atoms: C_20  and  O_21 
REMARK    7  A    between atoms: C_22  and  O_24 
REMARK    8  A    between atoms: C_27  and  O_28 
ROOT
HETATM    1  C   LIG     1      25.884  23.234  25.564  1.00  0.00     0.180 C 
HETATM    2  C   LIG     1      25.668  21.748  25.911  1.00  0.00     0.104 C 
HETATM    3  C   LIG     1      27.011  20.931  25.850  1.00  0.00     0.289 C 
HETATM    4  C   LIG     1      28.253  21.706  26.309  1.00  0.00     0.096 C 
HETATM    5  C   LIG     1      28.196  23.007  26.674  1.00  0.00     0.112 C 
HETATM    6  C   LIG     1      26.317  23.330  24.104  1.00  0.00     0.097 C 
HETATM    7  C   LIG     1      25.719  22.550  23.175  1.00  0.00     0.035 C 
HETATM    8  C   LIG     1      26.104  22.640  21.749  1.00  0.00     0.195 C 
HETATM    9  O   LIG     1      27.267  23.007  21.423  1.00  0.00    -0.287 OA
HETATM   10  C   LIG     1      24.476  21.748  23.548  1.00  0.00     0.093 C 
HETATM   11  C   LIG     1      24.544  21.144  25.008  1.00  0.00     0.140 C 
HETATM   12  C   LIG     1      24.029  20.726  22.428  1.00  0.00     0.092 C 
HETATM   13  C   LIG     1      22.592  20.239  22.755  1.00  0.00     0.052 C 
HETATM   14  C   LIG     1      24.080  21.373  21.029  1.00  0.00    -0.007 A 
HETATM   15  C   LIG     1      25.128  22.269  20.707  1.00  0.00     0.057 A 
HETATM   16  C   LIG     1      25.228  22.807  19.403  1.00  0.00     0.080 A 
HETATM   17  C   LIG     1      24.308  22.434  18.420  1.00  0.00     0.037 A 
HETATM   18  C   LIG     1      23.295  21.529  18.717  1.00  0.00     0.003 A 
HETATM   19  C   LIG     1      23.184  20.995  19.999  1.00  0.00     0.011 A 
HETATM   20  C   LIG     1      26.941  23.763  26.502  1.00  0.00     0.208 C 
HETATM   21  O   LIG     1      26.772  24.862  27.098  1.00  0.00    -0.288 OA
ENDROOT
BRANCH   5  22
HETATM   22  C   LIG     1      29.387  23.733  27.162  1.00  0.00     0.255 C 
HETATM   23  N   LIG     1      29.795  24.952  26.539  1.00  0.00    -0.366 N 
HETATM   24  H   LIG     1      29.227  25.375  25.773  1.00  0.00     0.159 HD
HETATM   25  H   LIG     1      30.653  25.448  26.865  1.00  0.00     0.159 HD
HETATM   26  O   LIG     1      30.065  23.263  28.113  1.00  0.00    -0.268 OA
ENDBRANCH   5  22
BRANCH   4  27
HETATM   27  O   LIG     1      29.462  21.000  26.338  1.00  0.00    -0.362 OA
HETATM   28  H   LIG     1      30.229  21.160  25.698  1.00  0.00     0.217 HD
ENDBRANCH   4  27
BRANCH   3  29
HETATM   29  N   LIG     1      26.836  19.654  26.601  1.00  0.00     0.091 N 
HETATM   30  C   LIG     1      26.924  19.777  28.068  1.00  0.00     0.310 C 
HETATM   31  C   LIG     1      27.698  18.569  26.105  1.00  0.00     0.310 C 
ENDBRANCH   3  29
BRANCH   1  32
HETATM   32  O   LIG     1      24.675  23.932  25.754  1.00  0.00    -0.374 OA
HETATM   33  H   LIG     1      24.167  23.473  26.476  1.00  0.00     0.211 HD
ENDBRANCH   1  32
BRANCH   6  34
HETATM   34  O   LIG     1      27.310  24.239  23.717  1.00  0.00    -0.361 OA
HETATM   35  H   LIG     1      27.173  25.240  23.721  1.00  0.00     0.217 HD
ENDBRANCH   6  34
BRANCH  11  36
HETATM   36  O   LIG     1      24.633  19.741  24.991  1.00  0.00    -0.394 OA
HETATM   37  H   LIG     1      23.889  19.407  24.422  1.00  0.00     0.210 HD
ENDBRANCH  11  36
BRANCH  12  38
HETATM   38  O   LIG     1      24.873  19.598  22.414  1.00  0.00    -0.385 OA
HETATM   39  H   LIG     1      25.790  19.892  22.655  1.00  0.00     0.211 HD
ENDBRANCH  12  38
BRANCH  16  40
HETATM   40  O   LIG     1      26.233  23.723  19.087  1.00  0.00    -0.360 OA
HETATM   41  H   LIG     1      26.104  24.720  19.210  1.00  0.00     0.217 HD
ENDBRANCH  16  40
TORSDOF 8
ENDMDL
MODEL 6
REMARK VINA RESULT:      -4.4      3.269      6.491
REMARK  8 active torsions:
REMARK  status: ('A' for Active; 'I' for Inactive)
REMARK    1  A    between atoms: O_1  and  C_2 
REMARK    2  A    between atoms: C_4  and  N_11 
REMARK    3  A    between atoms: C_5  and  O_6 
REMARK    4  A    between atoms: C_7  and  C_8 
REMARK       I    between atoms: C_8  and  N_9 
REMARK    5  A    between atoms: C_14  and  O_15 
REMARK    6  A    between atoms: C_20  and  O_21 
REMARK    7  A    between atoms: C_22  and  O_24 
REMARK    8  A    between atoms: C_27  and  O_28 
ROOT
HETATM    1  C   LIG     1      28.368  22.459  22.249  1.00  0.00     0.180 C 
HETATM    2  C   LIG     1      27.422  22.408  21.034  1.00  0.00     0.104 C 
HETATM    3  C   LIG     1      26.905  23.839  20.632  1.00  0.00     0.289 C 
HETATM    4  C   LIG     1      27.927  24.966  20.826  1.00  0.00     0.096 C 
HETATM    5  C   LIG     1      29.150  24.745  21.359  1.00  0.00     0.112 C 
HETATM    6  C   LIG     1      27.568  22.925  23.462  1.00  0.00     0.097 C 
HETATM    7  C   LIG     1      26.316  22.452  23.662  1.00  0.00     0.035 C 
HETATM    8  C   LIG     1      25.530  22.870  24.843  1.00  0.00     0.195 C 
HETATM    9  O   LIG     1      25.734  23.992  25.384  1.00  0.00    -0.287 OA
HETATM   10  C   LIG     1      25.798  21.300  22.807  1.00  0.00     0.093 C 
HETATM   11  C   LIG     1      26.263  21.391  21.298  1.00  0.00     0.140 C 
HETATM   12  C   LIG     1      24.258  21.013  23.009  1.00  0.00     0.092 C 
HETATM   13  C   LIG     1      23.930  19.633  22.380  1.00  0.00     0.052 C 
HETATM   14  C   LIG     1      23.877  21.032  24.505  1.00  0.00    -0.007 A 
HETATM   15  C   LIG     1      24.479  21.978  25.369  1.00  0.00     0.057 A 
HETATM   16  C   LIG     1      24.081  22.057  26.724  1.00  0.00     0.080 A 
HETATM   17  C   LIG     1      23.071  21.219  27.206  1.00  0.00     0.037 A 
HETATM   18  C   LIG     1      22.452  20.310  26.356  1.00  0.00     0.003 A 
HETATM   19  C   LIG     1      22.838  20.221  25.021  1.00  0.00     0.011 A 
HETATM   20  C   LIG     1      29.483  23.416  21.906  1.00  0.00     0.208 C 
HETATM   21  O   LIG     1      30.684  23.101  22.128  1.00  0.00    -0.288 OA
ENDROOT
BRANCH   5  22
HETATM   22  C   LIG     1      30.148  25.826  21.496  1.00  0.00     0.255 C 
HETATM   23  N   LIG     1      30.684  26.155  22.778  1.00  0.00    -0.366 N 
HETATM   24  H   LIG     1      30.425  25.600  23.623  1.00  0.00     0.159 HD
HETATM   25  H   LIG     1      31.366  26.939  22.878  1.00  0.00     0.159 HD
HETATM   26  O   LIG     1      30.507  26.484  20.484  1.00  0.00    -0.268 OA
ENDBRANCH   5  22
BRANCH   4  27
HETATM   27  O   LIG     1      27.537  26.247  20.417  1.00  0.00    -0.362 OA
HETATM   28  H   LIG     1      26.588  26.503  20.178  1.00  0.00     0.217 HD
ENDBRANCH   4  27
BRANCH   3  29
HETATM   29  N   LIG     1      26.378  23.790  19.238  1.00  0.00     0.091 N 
HETATM   30  C   LIG     1      27.371  23.431  18.209  1.00  0.00     0.310 C 
HETATM   31  C   LIG     1      25.633  25.001  18.858  1.00  0.00     0.310 C 
ENDBRANCH   3  29
BRANCH   1  32
HETATM   32  O   LIG     1      28.890  21.171  22.482  1.00  0.00    -0.374 OA
HETATM   33  H   LIG     1      29.216  20.812  21.613  1.00  0.00     0.211 HD
ENDBRANCH   1  32
BRANCH   6  34
HETATM   34  O   LIG     1      28.132  23.816  24.383  1.00  0.00    -0.361 OA
HETATM   35  H   LIG     1      28.006  23.731  25.382  1.00  0.00     0.217 HD
ENDBRANCH   6  34
BRANCH  11  36
HETATM   36  O   LIG     1      25.184  21.644  20.432  1.00  0.00    -0.394 OA
HETATM   37  H   LIG     1      25.470  21.368  19.521  1.00  0.00     0.210 HD
ENDBRANCH  11  36
BRANCH  12  38
HETATM   38  O   LIG     1      23.476  21.983  22.351  1.00  0.00    -0.385 OA
HETATM   39  H   LIG     1      23.312  22.731  22.982  1.00  0.00     0.211 HD
ENDBRANCH  12  38
BRANCH  16  40
HETATM   40  O   LIG     1      24.696  22.957  27.595  1.00  0.00    -0.360 OA
HETATM   41  H   LIG     1      25.454  23.558  27.293  1.00  0.00     0.217 HD
ENDBRANCH  16  40
TORSDOF 8
ENDMDL
MODEL 7
REMARK VINA RESULT:      -4.4      2.399      7.461
REMARK  8 active torsions:
REMARK  status: ('A' for Active; 'I' for Inactive)
REMARK    1  A    between atoms: O_1  and  C_2 
REMARK    2  A    between atoms: C_4  and  N_11 
REMARK    3  A    between atoms: C_5  and  O_6 
REMARK    4  A    between atoms: C_7  and  C_8 
REMARK       I    between atoms: C_8  and  N_9 
REMARK    5  A    between atoms: C_14  and  O_15 
REMARK    6  A    between atoms: C_20  and  O_21 
REMARK    7  A    between atoms: C_22  and  O_24 
REMARK    8  A    between atoms: C_27  and  O_28 
ROOT
HETATM    1  C   LIG     1      26.103  23.641  18.695  1.00  0.00     0.180 C 
HETATM    2  C   LIG     1      27.432  23.271  18.009  1.00  0.00     0.104 C 
HETATM    3  C   LIG     1      27.865  21.793  18.329  1.00  0.00     0.289 C 
HETATM    4  C   LIG     1      26.705  20.798  18.453  1.00  0.00     0.096 C 
HETATM    5  C   LIG     1      25.412  21.184  18.356  1.00  0.00     0.112 C 
HETATM    6  C   LIG     1      26.321  23.632  20.205  1.00  0.00     0.097 C 
HETATM    7  C   LIG     1      27.459  24.152  20.721  1.00  0.00     0.035 C 
HETATM    8  C   LIG     1      27.684  24.176  22.183  1.00  0.00     0.195 C 
HETATM    9  O   LIG     1      27.145  23.312  22.928  1.00  0.00    -0.287 OA
HETATM   10  C   LIG     1      28.408  24.936  19.820  1.00  0.00     0.093 C 
HETATM   11  C   LIG     1      28.532  24.323  18.368  1.00  0.00     0.140 C 
HETATM   12  C   LIG     1      29.785  25.285  20.512  1.00  0.00     0.092 C 
HETATM   13  C   LIG     1      30.505  26.361  19.656  1.00  0.00     0.052 C 
HETATM   14  C   LIG     1      29.573  25.790  21.955  1.00  0.00    -0.007 A 
HETATM   15  C   LIG     1      28.572  25.201  22.764  1.00  0.00     0.057 A 
HETATM   16  C   LIG     1      28.421  25.602  24.113  1.00  0.00     0.080 A 
HETATM   17  C   LIG     1      29.279  26.561  24.657  1.00  0.00     0.037 A 
HETATM   18  C   LIG     1      30.287  27.120  23.880  1.00  0.00     0.003 A 
HETATM   19  C   LIG     1      30.443  26.736  22.549  1.00  0.00     0.011 A 
HETATM   20  C   LIG     1      25.079  22.618  18.266  1.00  0.00     0.208 C 
HETATM   21  O   LIG     1      23.935  22.984  17.879  1.00  0.00    -0.288 OA
ENDROOT
BRANCH   5  22
HETATM   22  C   LIG     1      24.301  20.213  18.426  1.00  0.00     0.255 C 
HETATM   23  N   LIG     1      23.237  20.400  19.361  1.00  0.00    -0.366 N 
HETATM   24  H   LIG     1      23.200  21.251  19.963  1.00  0.00     0.159 HD
HETATM   25  H   LIG     1      22.468  19.697  19.431  1.00  0.00     0.159 HD
HETATM   26  O   LIG     1      24.302  19.198  17.680  1.00  0.00    -0.268 OA
ENDBRANCH   5  22
BRANCH   4  27
HETATM   27  O   LIG     1      27.043  19.457  18.669  1.00  0.00    -0.362 OA
HETATM   28  H   LIG     1      27.930  19.046  18.407  1.00  0.00     0.217 HD
ENDBRANCH   4  27
BRANCH   3  29
HETATM   29  N   LIG     1      28.876  21.355  17.323  1.00  0.00     0.091 N 
HETATM   30  C   LIG     1      28.320  20.933  16.025  1.00  0.00     0.310 C 
HETATM   31  C   LIG     1      29.820  20.355  17.849  1.00  0.00     0.310 C 
ENDBRANCH   3  29
BRANCH   1  32
HETATM   32  O   LIG     1      25.708  24.927  18.273  1.00  0.00    -0.374 OA
HETATM   33  H   LIG     1      25.848  25.554  19.032  1.00  0.00     0.211 HD
ENDBRANCH   1  32
BRANCH   6  34
HETATM   34  O   LIG     1      25.341  23.114  21.060  1.00  0.00    -0.361 OA
HETATM   35  H   LIG     1      24.446  23.560  21.208  1.00  0.00     0.217 HD
ENDBRANCH   6  34
BRANCH  11  36
HETATM   36  O   LIG     1      29.812  23.789  18.133  1.00  0.00    -0.394 OA
HETATM   37  H   LIG     1      29.866  22.929  18.626  1.00  0.00     0.210 HD
ENDBRANCH  11  36
BRANCH  12  38
HETATM   38  O   LIG     1      30.619  24.150  20.569  1.00  0.00    -0.385 OA
HETATM   39  H   LIG     1      31.536  24.449  20.803  1.00  0.00     0.211 HD
ENDBRANCH  12  38
BRANCH  16  40
HETATM   40  O   LIG     1      27.411  25.058  24.907  1.00  0.00    -0.360 OA
HETATM   41  H   LIG     1      26.638  25.619  25.245  1.00  0.00     0.217 HD
ENDBRANCH  16  40
TORSDOF 8
ENDMDL
MODEL 8
REMARK VINA RESULT:      -4.3      2.918      7.938
REMARK  8 active torsions:
REMARK  status: ('A' for Active; 'I' for Inactive)
REMARK    1  A    between atoms: O_1  and  C_2 
REMARK    2  A    between atoms: C_4  and  N_11 
REMARK    3  A    between atoms: C_5  and  O_6 
REMARK    4  A    between atoms: C_7  and  C_8 
REMARK       I    between atoms: C_8  and  N_9 
REMARK    5  A    between atoms: C_14  and  O_15 
REMARK    6  A    between atoms: C_20  and  O_21 
REMARK    7  A    between atoms: C_22  and  O_24 
REMARK    8  A    between atoms: C_27  and  O_28 
ROOT
HETATM    1  C   LIG     1      23.839  22.393  21.348  1.00  0.00     0.180 C 
HETATM    2  C   LIG     1      25.329  22.538  20.984  1.00  0.00     0.104 C 
HETATM    3  C   LIG     1      25.956  21.169  20.527  1.00  0.00     0.289 C 
HETATM    4  C   LIG     1      25.006  20.262  19.736  1.00  0.00     0.096 C 
HETATM    5  C   LIG     1      23.714  20.595  19.510  1.00  0.00     0.112 C 
HETATM    6  C   LIG     1      23.728  21.499  22.579  1.00  0.00     0.097 C 
HETATM    7  C   LIG     1      24.610  21.644  23.595  1.00  0.00     0.035 C 
HETATM    8  C   LIG     1      24.510  20.805  24.809  1.00  0.00     0.195 C 
HETATM    9  O   LIG     1      23.998  19.653  24.751  1.00  0.00    -0.287 OA
HETATM   10  C   LIG     1      25.563  22.835  23.604  1.00  0.00     0.093 C 
HETATM   11  C   LIG     1      26.108  23.203  22.166  1.00  0.00     0.140 C 
HETATM   12  C   LIG     1      26.669  22.745  24.729  1.00  0.00     0.092 C 
HETATM   13  C   LIG     1      27.338  24.138  24.871  1.00  0.00     0.052 C 
HETATM   14  C   LIG     1      26.063  22.293  26.074  1.00  0.00    -0.007 A 
HETATM   15  C   LIG     1      25.043  21.311  26.088  1.00  0.00     0.057 A 
HETATM   16  C   LIG     1      24.534  20.833  27.319  1.00  0.00     0.080 A 
HETATM   17  C   LIG     1      25.060  21.307  28.524  1.00  0.00     0.037 A 
HETATM   18  C   LIG     1      26.085  22.246  28.519  1.00  0.00     0.003 A 
HETATM   19  C   LIG     1      26.591  22.728  27.313  1.00  0.00     0.011 A 
HETATM   20  C   LIG     1      23.143  21.794  20.151  1.00  0.00     0.208 C 
HETATM   21  O   LIG     1      22.060  22.286  19.730  1.00  0.00    -0.288 OA
ENDROOT
BRANCH   5  22
HETATM   22  C   LIG     1      22.818  19.740  18.704  1.00  0.00     0.255 C 
HETATM   23  N   LIG     1      22.355  20.182  17.428  1.00  0.00    -0.366 N 
HETATM   24  H   LIG     1      22.688  21.084  17.022  1.00  0.00     0.159 HD
HETATM   25  H   LIG     1      21.697  19.591  16.873  1.00  0.00     0.159 HD
HETATM   26  O   LIG     1      22.435  18.628  19.154  1.00  0.00    -0.268 OA
ENDBRANCH   5  22
BRANCH   4  27
HETATM   27  O   LIG     1      25.539  19.063  19.248  1.00  0.00    -0.362 OA
HETATM   28  H   LIG     1      26.527  18.893  19.115  1.00  0.00     0.217 HD
ENDBRANCH   4  27
BRANCH   3  29
HETATM   29  N   LIG     1      27.222  21.440  19.787  1.00  0.00     0.091 N 
HETATM   30  C   LIG     1      27.046  21.878  18.389  1.00  0.00     0.310 C 
HETATM   31  C   LIG     1      28.194  20.338  19.879  1.00  0.00     0.310 C 
ENDBRANCH   3  29
BRANCH   1  32
HETATM   32  O   LIG     1      23.307  23.668  21.629  1.00  0.00    -0.374 OA
HETATM   33  H   LIG     1      23.381  24.219  20.805  1.00  0.00     0.211 HD
ENDBRANCH   1  32
BRANCH   6  34
HETATM   34  O   LIG     1      22.704  20.549  22.675  1.00  0.00    -0.361 OA
HETATM   35  H   LIG     1      22.808  19.592  22.366  1.00  0.00     0.217 HD
ENDBRANCH   6  34
BRANCH  11  36
HETATM   36  O   LIG     1      27.486  22.948  22.047  1.00  0.00    -0.394 OA
HETATM   37  H   LIG     1      27.935  23.411  22.803  1.00  0.00     0.210 HD
ENDBRANCH  11  36
BRANCH  12  38
HETATM   38  O   LIG     1      27.671  21.821  24.373  1.00  0.00    -0.385 OA
HETATM   39  H   LIG     1      28.259  22.244  23.695  1.00  0.00     0.211 HD
ENDBRANCH  12  38
BRANCH  16  40
HETATM   40  O   LIG     1      23.500  19.896  27.345  1.00  0.00    -0.360 OA
HETATM   41  H   LIG     1      23.684  18.901  27.384  1.00  0.00     0.217 HD
ENDBRANCH  16  40
TORSDOF 8
ENDMDL
MODEL 9
REMARK VINA RESULT:      -4.2      2.918      6.721
REMARK  8 active torsions:
REMARK  status: ('A' for Active; 'I' for Inactive)
REMARK    1  A    between atoms: O_1  and  C_2 
REMARK    2  A    between atoms: C_4  and  N_11 
REMARK    3  A    between atoms: C_5  and  O_6 
REMARK    4  A    between atoms: C_7  and  C_8 
REMARK       I    between atoms: C_8  and  N_9 
REMARK    5  A    between atoms: C_14  and  O_15 
REMARK    6  A    between atoms: C_20  and  O_21 
REMARK    7  A    between atoms: C_22  and  O_24 
REMARK    8  A    between atoms: C_27  and  O_28 
ROOT
HETATM    1  C   LIG     1      27.125  20.733  21.577  1.00  0.00     0.180 C 
HETATM    2  C   LIG     1      25.994  20.311  20.620  1.00  0.00     0.104 C 
HETATM    3  C   LIG     1      25.349  21.548  19.893  1.00  0.00     0.289 C 
HETATM    4  C   LIG     1      26.333  22.673  19.550  1.00  0.00     0.096 C 
HETATM    5  C   LIG     1      27.637  22.622  19.905  1.00  0.00     0.112 C 
HETATM    6  C   LIG     1      26.518  21.559  22.707  1.00  0.00     0.097 C 
HETATM    7  C   LIG     1      25.341  21.180  23.257  1.00  0.00     0.035 C 
HETATM    8  C   LIG     1      24.742  21.950  24.369  1.00  0.00     0.195 C 
HETATM    9  O   LIG     1      24.980  23.183  24.494  1.00  0.00    -0.287 OA
HETATM   10  C   LIG     1      24.743  19.822  22.901  1.00  0.00     0.093 C 
HETATM   11  C   LIG     1      24.946  19.435  21.382  1.00  0.00     0.140 C 
HETATM   12  C   LIG     1      23.274  19.621  23.446  1.00  0.00     0.092 C 
HETATM   13  C   LIG     1      22.913  18.116  23.339  1.00  0.00     0.052 C 
HETATM   14  C   LIG     1      23.147  20.108  24.905  1.00  0.00    -0.007 A 
HETATM   15  C   LIG     1      23.838  21.273  25.318  1.00  0.00     0.057 A 
HETATM   16  C   LIG     1      23.668  21.773  26.630  1.00  0.00     0.080 A 
HETATM   17  C   LIG     1      22.794  21.133  27.514  1.00  0.00     0.037 A 
HETATM   18  C   LIG     1      22.086  20.008  27.106  1.00  0.00     0.003 A 
HETATM   19  C   LIG     1      22.248  19.505  25.817  1.00  0.00     0.011 A 
HETATM   20  C   LIG     1      28.120  21.528  20.769  1.00  0.00     0.208 C 
HETATM   21  O   LIG     1      29.356  21.291  20.865  1.00  0.00    -0.288 OA
ENDROOT
BRANCH   5  22
HETATM   22  C   LIG     1      28.591  23.686  19.527  1.00  0.00     0.255 C 
HETATM   23  N   LIG     1      29.361  24.354  20.528  1.00  0.00    -0.366 N 
HETATM   24  H   LIG     1      29.305  24.061  21.527  1.00  0.00     0.159 HD
HETATM   25  H   LIG     1      30.012  25.126  20.262  1.00  0.00     0.159 HD
HETATM   26  O   LIG     1      28.706  24.030  18.321  1.00  0.00    -0.268 OA
ENDBRANCH   5  22
BRANCH   4  27
HETATM   27  O   LIG     1      25.820  23.766  18.840  1.00  0.00    -0.362 OA
HETATM   28  H   LIG     1      26.386  24.514  18.462  1.00  0.00     0.217 HD
ENDBRANCH   4  27
BRANCH   3  29
HETATM   29  N   LIG     1      24.600  21.070  18.695  1.00  0.00     0.091 N 
HETATM   30  C   LIG     1      25.437  20.759  17.521  1.00  0.00     0.310 C 
HETATM   31  C   LIG     1      23.475  21.946  18.328  1.00  0.00     0.310 C 
ENDBRANCH   3  29
BRANCH   1  32
HETATM   32  O   LIG     1      27.740  19.578  22.102  1.00  0.00    -0.374 OA
HETATM   33  H   LIG     1      27.609  18.839  21.450  1.00  0.00     0.211 HD
ENDBRANCH   1  32
BRANCH   6  34
HETATM   34  O   LIG     1      27.183  22.689  23.196  1.00  0.00    -0.361 OA
HETATM   35  H   LIG     1      27.230  22.921  24.179  1.00  0.00     0.217 HD
ENDBRANCH   6  34
BRANCH  11  36
HETATM   36  O   LIG     1      23.727  19.412  20.680  1.00  0.00    -0.394 OA
HETATM   37  H   LIG     1      23.370  18.487  20.745  1.00  0.00     0.210 HD
ENDBRANCH  11  36
BRANCH  12  38
HETATM   38  O   LIG     1      22.348  20.343  22.667  1.00  0.00    -0.385 OA
HETATM   39  H   LIG     1      22.255  21.251  23.055  1.00  0.00     0.211 HD
ENDBRANCH  12  38
BRANCH  16  40
HETATM   40  O   LIG     1      24.375  22.897  27.061  1.00  0.00    -0.360 OA
HETATM   41  H   LIG     1      25.056  23.357  26.468  1.00  0.00     0.217 HD
ENDBRANCH  16  40
TORSDOF 8
ENDMDL
MODEL 10
REMARK VINA RESULT:      -3.9      5.181     10.598
REMARK  8 active torsions:
REMARK  status: ('A' for Active; 'I' for Inactive)
REMARK    1  A    between atoms: O_1  and  C_2 
REMARK    2  A    between atoms: C_4  and  N_11 
REMARK    3  A    between atoms: C_5  and  O_6 
REMARK    4  A    between atoms: C_7  and  C_8 
REMARK       I    between atoms: C_8  and  N_9 
REMARK    5  A    between atoms: C_14  and  O_15 
REMARK    6  A    between atoms: C_20  and  O_21 
REMARK    7  A    between atoms: C_22  and  O_24 
REMARK    8  A    between atoms: C_27  and  O_28 
ROOT
HETATM    1  C   LIG     1      24.572  22.027  26.500  1.00  0.00     0.180 C 
HETATM    2  C   LIG     1      25.401  23.022  25.666  1.00  0.00     0.104 C 
HETATM    3  C   LIG     1      26.551  22.304  24.868  1.00  0.00     0.289 C 
HETATM    4  C   LIG     1      26.196  20.903  24.354  1.00  0.00     0.096 C 
HETATM    5  C   LIG     1      25.007  20.317  24.625  1.00  0.00     0.112 C 
HETATM    6  C   LIG     1      25.472  21.441  27.584  1.00  0.00     0.097 C 
HETATM    7  C   LIG     1      26.337  22.245  28.245  1.00  0.00     0.035 C 
HETATM    8  C   LIG     1      27.203  21.706  29.316  1.00  0.00     0.195 C 
HETATM    9  O   LIG     1      27.553  20.493  29.306  1.00  0.00    -0.287 OA
HETATM   10  C   LIG     1      26.253  23.757  28.061  1.00  0.00     0.093 C 
HETATM   11  C   LIG     1      25.921  24.183  26.576  1.00  0.00     0.140 C 
HETATM   12  C   LIG     1      27.460  24.536  28.720  1.00  0.00     0.092 C 
HETATM   13  C   LIG     1      27.095  26.043  28.782  1.00  0.00     0.052 C 
HETATM   14  C   LIG     1      27.772  23.994  30.131  1.00  0.00    -0.007 A 
HETATM   15  C   LIG     1      27.683  22.604  30.383  1.00  0.00     0.057 A 
HETATM   16  C   LIG     1      28.042  22.087  31.651  1.00  0.00     0.080 A 
HETATM   17  C   LIG     1      28.513  22.946  32.648  1.00  0.00     0.037 A 
HETATM   18  C   LIG     1      28.635  24.308  32.398  1.00  0.00     0.003 A 
HETATM   19  C   LIG     1      28.281  24.829  31.155  1.00  0.00     0.011 A 
HETATM   20  C   LIG     1      24.063  20.967  25.555  1.00  0.00     0.208 C 
HETATM   21  O   LIG     1      22.855  20.607  25.591  1.00  0.00    -0.288 OA
ENDROOT
BRANCH   5  22
HETATM   22  C   LIG     1      24.651  18.989  24.084  1.00  0.00     0.255 C 
HETATM   23  N   LIG     1      24.263  17.933  24.963  1.00  0.00    -0.366 N 
HETATM   24  H   LIG     1      24.169  18.100  25.989  1.00  0.00     0.159 HD
HETATM   25  H   LIG     1      24.041  16.986  24.582  1.00  0.00     0.159 HD
HETATM   26  O   LIG     1      24.717  18.774  22.845  1.00  0.00    -0.268 OA
ENDBRANCH   5  22
BRANCH   4  27
HETATM   27  O   LIG     1      27.162  20.251  23.580  1.00  0.00    -0.362 OA
HETATM   28  H   LIG     1      27.525  20.608  22.705  1.00  0.00     0.217 HD
ENDBRANCH   4  27
BRANCH   3  29
HETATM   29  N   LIG     1      27.018  23.203  23.774  1.00  0.00     0.091 N 
HETATM   30  C   LIG     1      26.239  23.120  22.525  1.00  0.00     0.310 C 
HETATM   31  C   LIG     1      28.462  23.091  23.509  1.00  0.00     0.310 C 
ENDBRANCH   3  29
BRANCH   1  32
HETATM   32  O   LIG     1      23.489  22.709  27.090  1.00  0.00    -0.374 OA
HETATM   33  H   LIG     1      22.649  22.333  26.714  1.00  0.00     0.211 HD
ENDBRANCH   1  32
BRANCH   6  34
HETATM   34  O   LIG     1      25.388  20.083  27.917  1.00  0.00    -0.361 OA
HETATM   35  H   LIG     1      24.965  19.392  27.314  1.00  0.00     0.217 HD
ENDBRANCH   6  34
BRANCH  11  36
HETATM   36  O   LIG     1      27.006  24.836  25.962  1.00  0.00    -0.394 OA
HETATM   37  H   LIG     1      26.627  25.503  25.331  1.00  0.00     0.210 HD
ENDBRANCH  11  36
BRANCH  12  38
HETATM   38  O   LIG     1      28.626  24.407  27.939  1.00  0.00    -0.385 OA
HETATM   39  H   LIG     1      28.367  24.053  27.049  1.00  0.00     0.211 HD
ENDBRANCH  12  38
BRANCH  16  40
HETATM   40  O   LIG     1      27.919  20.724  31.923  1.00  0.00    -0.360 OA
HETATM   41  H   LIG     1      28.360  20.301  32.731  1.00  0.00     0.217 HD
ENDBRANCH  16  40
TORSDOF 8
ENDMDL
MODEL 11
REMARK VINA RESULT:      -3.7      4.624      9.828
REMARK  8 active torsions:
REMARK  status: ('A' for Active; 'I' for Inactive)
REMARK    1  A    between atoms: O_1  and  C_2 
REMARK    2  A    between atoms: C_4  and  N_11 
REMARK    3  A    between atoms: C_5  and  O_6 
REMARK    4  A    between atoms: C_7  and  C_8 
REMARK       I    between atoms: C_8  and  N_9 
REMARK    5  A    between atoms: C_14  and  O_15 
REMARK    6  A    between atoms: C_20  and  O_21 
REMARK    7  A    between atoms: C_22  and  O_24 
REMARK    8  A    between atoms: C_27  and  O_28 
ROOT
HETATM    1  C   LIG     1      27.555  22.103  24.813  1.00  0.00     0.180 C 
HETATM    2  C   LIG     1      26.988  20.823  25.456  1.00  0.00     0.104 C 
HETATM    3  C   LIG     1      25.417  20.777  25.384  1.00  0.00     0.289 C 
HETATM    4  C   LIG     1      24.816  21.387  24.112  1.00  0.00     0.096 C 
HETATM    5  C   LIG     1      25.582  21.973  23.163  1.00  0.00     0.112 C 
HETATM    6  C   LIG     1      27.105  23.300  25.645  1.00  0.00     0.097 C 
HETATM    7  C   LIG     1      27.115  23.220  26.995  1.00  0.00     0.035 C 
HETATM    8  C   LIG     1      26.705  24.375  27.825  1.00  0.00     0.195 C 
HETATM    9  O   LIG     1      25.885  25.224  27.379  1.00  0.00    -0.287 OA
HETATM   10  C   LIG     1      27.779  22.028  27.677  1.00  0.00     0.093 C 
HETATM   11  C   LIG     1      27.539  20.665  26.912  1.00  0.00     0.140 C 
HETATM   12  C   LIG     1      27.516  21.969  29.234  1.00  0.00     0.092 C 
HETATM   13  C   LIG     1      28.506  20.950  29.859  1.00  0.00     0.052 C 
HETATM   14  C   LIG     1      27.685  23.359  29.882  1.00  0.00    -0.007 A 
HETATM   15  C   LIG     1      27.239  24.513  29.193  1.00  0.00     0.057 A 
HETATM   16  C   LIG     1      27.317  25.784  29.810  1.00  0.00     0.080 A 
HETATM   17  C   LIG     1      27.809  25.899  31.113  1.00  0.00     0.037 A 
HETATM   18  C   LIG     1      28.217  24.767  31.810  1.00  0.00     0.003 A 
HETATM   19  C   LIG     1      28.148  23.511  31.211  1.00  0.00     0.011 A 
HETATM   20  C   LIG     1      27.025  22.165  23.401  1.00  0.00     0.208 C 
HETATM   21  O   LIG     1      27.801  22.425  22.440  1.00  0.00    -0.288 OA
ENDROOT
BRANCH   5  22
HETATM   22  C   LIG     1      25.002  22.513  21.917  1.00  0.00     0.255 C 
HETATM   23  N   LIG     1      25.641  22.276  20.661  1.00  0.00    -0.366 N 
HETATM   24  H   LIG     1      26.489  21.671  20.600  1.00  0.00     0.159 HD
HETATM   25  H   LIG     1      25.247  22.684  19.785  1.00  0.00     0.159 HD
HETATM   26  O   LIG     1      23.956  23.214  21.960  1.00  0.00    -0.268 OA
ENDBRANCH   5  22
BRANCH   4  27
HETATM   27  O   LIG     1      23.426  21.308  23.970  1.00  0.00    -0.362 OA
HETATM   28  H   LIG     1      22.959  20.905  23.168  1.00  0.00     0.217 HD
ENDBRANCH   4  27
BRANCH   3  29
HETATM   29  N   LIG     1      24.963  19.373  25.604  1.00  0.00     0.091 N 
HETATM   30  C   LIG     1      25.058  18.496  24.422  1.00  0.00     0.310 C 
HETATM   31  C   LIG     1      23.631  19.286  26.224  1.00  0.00     0.310 C 
ENDBRANCH   3  29
BRANCH   1  32
HETATM   32  O   LIG     1      28.962  22.028  24.799  1.00  0.00    -0.374 OA
HETATM   33  H   LIG     1      29.293  22.623  24.074  1.00  0.00     0.211 HD
ENDBRANCH   1  32
BRANCH   6  34
HETATM   34  O   LIG     1      26.707  24.489  25.020  1.00  0.00    -0.361 OA
HETATM   35  H   LIG     1      26.199  24.510  24.146  1.00  0.00     0.217 HD
ENDBRANCH   6  34
BRANCH  11  36
HETATM   36  O   LIG     1      26.724  19.787  27.649  1.00  0.00    -0.394 OA
HETATM   37  H   LIG     1      25.795  20.137  27.598  1.00  0.00     0.210 HD
ENDBRANCH  11  36
BRANCH  12  38
HETATM   38  O   LIG     1      26.208  21.521  29.504  1.00  0.00    -0.385 OA
HETATM   39  H   LIG     1      25.768  21.304  28.642  1.00  0.00     0.211 HD
ENDBRANCH  12  38
BRANCH  16  40
HETATM   40  O   LIG     1      26.920  26.933  29.124  1.00  0.00    -0.360 OA
HETATM   41  H   LIG     1      26.788  27.818  29.599  1.00  0.00     0.217 HD
ENDBRANCH  16  40
TORSDOF 8
ENDMDL
MODEL 12
REMARK VINA RESULT:      -3.5      2.512      6.847
REMARK  8 active torsions:
REMARK  status: ('A' for Active; 'I' for Inactive)
REMARK    1  A    between atoms: O_1  and  C_2 
REMARK    2  A    between atoms: C_4  and  N_11 
REMARK    3  A    between atoms: C_5  and  O_6 
REMARK    4  A    between atoms: C_7  and  C_8 
REMARK       I    between atoms: C_8  and  N_9 
REMARK    5  A    between atoms: C_14  and  O_15 
REMARK    6  A    between atoms: C_20  and  O_21 
REMARK    7  A    between atoms: C_22  and  O_24 
REMARK    8  A    between atoms: C_27  and  O_28 
ROOT
HETATM    1  C   LIG     1      27.337  20.752  20.869  1.00  0.00     0.180 C 
HETATM    2  C   LIG     1      25.920  20.310  20.455  1.00  0.00     0.104 C 
HETATM    3  C   LIG     1      25.125  21.474  19.755  1.00  0.00     0.289 C 
HETATM    4  C   LIG     1      25.980  22.400  18.883  1.00  0.00     0.096 C 
HETATM    5  C   LIG     1      27.321  22.257  18.780  1.00  0.00     0.112 C 
HETATM    6  C   LIG     1      27.211  21.823  21.949  1.00  0.00     0.097 C 
HETATM    7  C   LIG     1      26.286  21.684  22.926  1.00  0.00     0.035 C 
HETATM    8  C   LIG     1      26.160  22.697  23.997  1.00  0.00     0.195 C 
HETATM    9  O   LIG     1      26.489  23.896  23.786  1.00  0.00    -0.287 OA
HETATM   10  C   LIG     1      25.533  20.365  23.072  1.00  0.00     0.093 C 
HETATM   11  C   LIG     1      25.166  19.705  21.683  1.00  0.00     0.140 C 
HETATM   12  C   LIG     1      24.343  20.434  24.109  1.00  0.00     0.092 C 
HETATM   13  C   LIG     1      23.891  18.986  24.433  1.00  0.00     0.052 C 
HETATM   14  C   LIG     1      24.764  21.173  25.396  1.00  0.00    -0.007 A 
HETATM   15  C   LIG     1      25.615  22.302  25.310  1.00  0.00     0.057 A 
HETATM   16  C   LIG     1      25.945  23.033  26.475  1.00  0.00     0.080 A 
HETATM   17  C   LIG     1      25.409  22.660  27.711  1.00  0.00     0.037 A 
HETATM   18  C   LIG     1      24.546  21.573  27.799  1.00  0.00     0.003 A 
HETATM   19  C   LIG     1      24.216  20.843  26.659  1.00  0.00     0.011 A 
HETATM   20  C   LIG     1      28.022  21.276  19.631  1.00  0.00     0.208 C 
HETATM   21  O   LIG     1      29.198  20.915  19.351  1.00  0.00    -0.288 OA
ENDROOT
BRANCH   5  22
HETATM   22  C   LIG     1      28.133  23.121  17.899  1.00  0.00     0.255 C 
HETATM   23  N   LIG     1      28.880  22.554  16.821  1.00  0.00    -0.366 N 
HETATM   24  H   LIG     1      28.816  21.535  16.606  1.00  0.00     0.159 HD
HETATM   25  H   LIG     1      29.477  23.162  16.218  1.00  0.00     0.159 HD
HETATM   26  O   LIG     1      28.194  24.361  18.113  1.00  0.00    -0.268 OA
ENDBRANCH   5  22
BRANCH   4  27
HETATM   27  O   LIG     1      25.307  23.409  18.185  1.00  0.00    -0.362 OA
HETATM   28  H   LIG     1      24.603  24.011  18.594  1.00  0.00     0.217 HD
ENDBRANCH   4  27
BRANCH   3  29
HETATM   29  N   LIG     1      23.978  20.891  19.001  1.00  0.00     0.091 N 
HETATM   30  C   LIG     1      24.335  20.251  17.721  1.00  0.00     0.310 C 
HETATM   31  C   LIG     1      22.859  21.832  18.830  1.00  0.00     0.310 C 
ENDBRANCH   3  29
BRANCH   1  32
HETATM   32  O   LIG     1      28.038  19.639  21.375  1.00  0.00    -0.374 OA
HETATM   33  H   LIG     1      27.416  18.862  21.380  1.00  0.00     0.211 HD
ENDBRANCH   1  32
BRANCH   6  34
HETATM   34  O   LIG     1      28.064  22.934  21.948  1.00  0.00    -0.361 OA
HETATM   35  H   LIG     1      28.858  23.020  21.330  1.00  0.00     0.217 HD
ENDBRANCH   6  34
BRANCH  11  36
HETATM   36  O   LIG     1      23.778  19.707  21.453  1.00  0.00    -0.394 OA
HETATM   37  H   LIG     1      23.493  20.658  21.393  1.00  0.00     0.210 HD
ENDBRANCH  11  36
BRANCH  12  38
HETATM   38  O   LIG     1      23.239  21.117  23.560  1.00  0.00    -0.385 OA
HETATM   39  H   LIG     1      22.410  20.671  23.872  1.00  0.00     0.211 HD
ENDBRANCH  12  38
BRANCH  16  40
HETATM   40  O   LIG     1      26.816  24.122  26.409  1.00  0.00    -0.360 OA
HETATM   41  H   LIG     1      27.552  24.174  25.714  1.00  0.00     0.217 HD
ENDBRANCH  16  40
TORSDOF 8
ENDMDL
MODEL 13
REMARK VINA RESULT:      -3.5      4.990      9.979
REMARK  8 active torsions:
REMARK  status: ('A' for Active; 'I' for Inactive)
REMARK    1  A    between atoms: O_1  and  C_2 
REMARK    2  A    between atoms: C_4  and  N_11 
REMARK    3  A    between atoms: C_5  and  O_6 
REMARK    4  A    between atoms: C_7  and  C_8 
REMARK       I    between atoms: C_8  and  N_9 
REMARK    5  A    between atoms: C_14  and  O_15 
REMARK    6  A    between atoms: C_20  and  O_21 
REMARK    7  A    between atoms: C_22  and  O_24 
REMARK    8  A    between atoms: C_27  and  O_28 
ROOT
HETATM    1  C   LIG     1      25.940  23.371  25.689  1.00  0.00     0.180 C 
HETATM    2  C   LIG     1      26.936  24.542  25.798  1.00  0.00     0.104 C 
HETATM    3  C   LIG     1      28.293  24.228  25.066  1.00  0.00     0.289 C 
HETATM    4  C   LIG     1      28.152  23.390  23.789  1.00  0.00     0.096 C 
HETATM    5  C   LIG     1      26.958  22.913  23.369  1.00  0.00     0.112 C 
HETATM    6  C   LIG     1      26.512  22.180  26.452  1.00  0.00     0.097 C 
HETATM    7  C   LIG     1      27.120  22.376  27.644  1.00  0.00     0.035 C 
HETATM    8  C   LIG     1      27.662  21.235  28.414  1.00  0.00     0.195 C 
HETATM    9  O   LIG     1      28.045  20.189  27.822  1.00  0.00    -0.287 OA
HETATM   10  C   LIG     1      27.036  23.742  28.319  1.00  0.00     0.093 C 
HETATM   11  C   LIG     1      27.129  24.944  27.297  1.00  0.00     0.140 C 
HETATM   12  C   LIG     1      27.973  23.874  29.585  1.00  0.00     0.092 C 
HETATM   13  C   LIG     1      27.550  25.139  30.377  1.00  0.00     0.052 C 
HETATM   14  C   LIG     1      27.887  22.619  30.478  1.00  0.00    -0.007 A 
HETATM   15  C   LIG     1      27.782  21.339  29.881  1.00  0.00     0.057 A 
HETATM   16  C   LIG     1      27.781  20.176  30.687  1.00  0.00     0.080 A 
HETATM   17  C   LIG     1      27.913  20.287  32.074  1.00  0.00     0.037 A 
HETATM   18  C   LIG     1      28.051  21.538  32.666  1.00  0.00     0.003 A 
HETATM   19  C   LIG     1      28.050  22.690  31.883  1.00  0.00     0.011 A 
HETATM   20  C   LIG     1      25.764  23.070  24.221  1.00  0.00     0.208 C 
HETATM   21  O   LIG     1      24.610  22.909  23.737  1.00  0.00    -0.288 OA
ENDROOT
BRANCH   5  22
HETATM   22  C   LIG     1      26.822  22.150  22.111  1.00  0.00     0.255 C 
HETATM   23  N   LIG     1      27.239  20.785  22.046  1.00  0.00    -0.366 N 
HETATM   24  H   LIG     1      27.589  20.293  22.897  1.00  0.00     0.159 HD
HETATM   25  H   LIG     1      27.171  20.256  21.149  1.00  0.00     0.159 HD
HETATM   26  O   LIG     1      26.364  22.710  21.080  1.00  0.00    -0.268 OA
ENDBRANCH   5  22
BRANCH   4  27
HETATM   27  O   LIG     1      29.324  23.143  23.064  1.00  0.00    -0.362 OA
HETATM   28  H   LIG     1      29.881  23.863  22.622  1.00  0.00     0.217 HD
ENDBRANCH   4  27
BRANCH   3  29
HETATM   29  N   LIG     1      29.020  25.507  24.823  1.00  0.00     0.091 N 
HETATM   30  C   LIG     1      28.566  26.267  23.644  1.00  0.00     0.310 C 
HETATM   31  C   LIG     1      30.483  25.350  24.823  1.00  0.00     0.310 C 
ENDBRANCH   3  29
BRANCH   1  32
HETATM   32  O   LIG     1      24.709  23.759  26.255  1.00  0.00    -0.374 OA
HETATM   33  H   LIG     1      24.897  24.417  26.976  1.00  0.00     0.211 HD
ENDBRANCH   1  32
BRANCH   6  34
HETATM   34  O   LIG     1      26.387  20.883  25.938  1.00  0.00    -0.361 OA
HETATM   35  H   LIG     1      27.128  20.197  25.984  1.00  0.00     0.217 HD
ENDBRANCH   6  34
BRANCH  11  36
HETATM   36  O   LIG     1      28.319  25.677  27.456  1.00  0.00    -0.394 OA
HETATM   37  H   LIG     1      28.812  25.271  28.217  1.00  0.00     0.210 HD
ENDBRANCH  11  36
BRANCH  12  38
HETATM   38  O   LIG     1      29.318  24.038  29.197  1.00  0.00    -0.385 OA
HETATM   39  H   LIG     1      29.339  24.261  28.231  1.00  0.00     0.211 HD
ENDBRANCH  12  38
BRANCH  16  40
HETATM   40  O   LIG     1      27.636  18.913  30.112  1.00  0.00    -0.360 OA
HETATM   41  H   LIG     1      27.039  18.206  30.524  1.00  0.00     0.217 HD
ENDBRANCH  16  40
TORSDOF 8
ENDMDL
MODEL 14
REMARK VINA RESULT:      -3.4      3.917      8.798
REMARK  8 active torsions:
REMARK  status: ('A' for Active; 'I' for Inactive)
REMARK    1  A    between atoms: O_1  and  C_2 
REMARK    2  A    between atoms: C_4  and  N_11 
REMARK    3  A    between atoms: C_5  and  O_6 
REMARK    4  A    between atoms: C_7  and  C_8 
REMARK       I    between atoms: C_8  and  N_9 
REMARK    5  A    between atoms: C_14  and  O_15 
REMARK    6  A    between atoms: C_20  and  O_21 
REMARK    7  A    between atoms: C_22  and  O_24 
REMARK    8  A    between atoms: C_27  and  O_28 
ROOT
HETATM    1  C   LIG     1      26.608  21.055  23.353  1.00  0.00     0.180 C 
HETATM    2  C   LIG     1      25.699  19.927  23.881  1.00  0.00     0.104 C 
HETATM    3  C   LIG     1      24.176  20.306  23.779  1.00  0.00     0.289 C 
HETATM    4  C   LIG     1      23.806  21.147  22.551  1.00  0.00     0.096 C 
HETATM    5  C   LIG     1      24.734  21.576  21.666  1.00  0.00     0.112 C 
HETATM    6  C   LIG     1      26.458  22.263  24.272  1.00  0.00     0.097 C 
HETATM    7  C   LIG     1      26.396  22.083  25.612  1.00  0.00     0.035 C 
HETATM    8  C   LIG     1      26.274  23.241  26.526  1.00  0.00     0.195 C 
HETATM    9  O   LIG     1      25.724  24.307  26.137  1.00  0.00    -0.287 OA
HETATM   10  C   LIG     1      26.695  20.710  26.205  1.00  0.00     0.093 C 
HETATM   11  C   LIG     1      26.133  19.521  25.327  1.00  0.00     0.140 C 
HETATM   12  C   LIG     1      26.368  20.608  27.747  1.00  0.00     0.092 C 
HETATM   13  C   LIG     1      27.030  19.319  28.304  1.00  0.00     0.052 C 
HETATM   14  C   LIG     1      26.873  21.851  28.509  1.00  0.00    -0.007 A 
HETATM   15  C   LIG     1      26.774  23.130  27.909  1.00  0.00     0.057 A 
HETATM   16  C   LIG     1      27.161  24.284  28.629  1.00  0.00     0.080 A 
HETATM   17  C   LIG     1      27.616  24.168  29.945  1.00  0.00     0.037 A 
HETATM   18  C   LIG     1      27.685  22.920  30.554  1.00  0.00     0.003 A 
HETATM   19  C   LIG     1      27.309  21.775  29.854  1.00  0.00     0.011 A 
HETATM   20  C   LIG     1      26.167  21.360  21.943  1.00  0.00     0.208 C 
HETATM   21  O   LIG     1      27.019  21.475  21.019  1.00  0.00    -0.288 OA
ENDROOT
BRANCH   5  22
HETATM   22  C   LIG     1      24.364  22.343  20.458  1.00  0.00     0.255 C 
HETATM   23  N   LIG     1      25.059  23.546  20.127  1.00  0.00    -0.366 N 
HETATM   24  H   LIG     1      25.872  23.867  20.697  1.00  0.00     0.159 HD
HETATM   25  H   LIG     1      24.777  24.103  19.290  1.00  0.00     0.159 HD
HETATM   26  O   LIG     1      23.413  21.954  19.731  1.00  0.00    -0.268 OA
ENDBRANCH   5  22
BRANCH   4  27
HETATM   27  O   LIG     1      22.450  21.450  22.380  1.00  0.00    -0.362 OA
HETATM   28  H   LIG     1      22.107  22.237  21.843  1.00  0.00     0.217 HD
ENDBRANCH   4  27
BRANCH   3  29
HETATM   29  N   LIG     1      23.359  19.061  23.876  1.00  0.00     0.091 N 
HETATM   30  C   LIG     1      23.203  18.319  22.611  1.00  0.00     0.310 C 
HETATM   31  C   LIG     1      22.059  19.271  24.533  1.00  0.00     0.310 C 
ENDBRANCH   3  29
BRANCH   1  32
HETATM   32  O   LIG     1      27.945  20.610  23.357  1.00  0.00    -0.374 OA
HETATM   33  H   LIG     1      27.945  19.641  23.131  1.00  0.00     0.211 HD
ENDBRANCH   1  32
BRANCH   6  34
HETATM   34  O   LIG     1      26.412  23.558  23.740  1.00  0.00    -0.361 OA
HETATM   35  H   LIG     1      27.041  23.880  23.017  1.00  0.00     0.217 HD
ENDBRANCH   6  34
BRANCH  11  36
HETATM   36  O   LIG     1      25.089  18.839  25.977  1.00  0.00    -0.394 OA
HETATM   37  H   LIG     1      24.722  19.454  26.666  1.00  0.00     0.210 HD
ENDBRANCH  11  36
BRANCH  12  38
HETATM   38  O   LIG     1      24.979  20.505  27.959  1.00  0.00    -0.385 OA
HETATM   39  H   LIG     1      24.726  19.547  27.908  1.00  0.00     0.211 HD
ENDBRANCH  12  38
BRANCH  16  40
HETATM   40  O   LIG     1      27.107  25.545  28.033  1.00  0.00    -0.360 OA
HETATM   41  H   LIG     1      26.603  26.314  28.459  1.00  0.00     0.217 HD
ENDBRANCH  16  40
TORSDOF 8
ENDMDL
MODEL 15
REMARK VINA RESULT:      -3.2      2.214      4.721
REMARK  8 active torsions:
REMARK  status: ('A' for Active; 'I' for Inactive)
REMARK    1  A    between atoms: O_1  and  C_2 
REMARK    2  A    between atoms: C_4  and  N_11 
REMARK    3  A    between atoms: C_5  and  O_6 
REMARK    4  A    between atoms: C_7  and  C_8 
REMARK       I    between atoms: C_8  and  N_9 
REMARK    5  A    between atoms: C_14  and  O_15 
REMARK    6  A    between atoms: C_20  and  O_21 
REMARK    7  A    between atoms: C_22  and  O_24 
REMARK    8  A    between atoms: C_27  and  O_28 
ROOT
HETATM    1  C   LIG     1      26.524  19.956  20.736  1.00  0.00     0.180 C 
HETATM    2  C   LIG     1      27.354  21.253  20.693  1.00  0.00     0.104 C 
HETATM    3  C   LIG     1      26.440  22.533  20.649  1.00  0.00     0.289 C 
HETATM    4  C   LIG     1      25.142  22.420  21.458  1.00  0.00     0.096 C 
HETATM    5  C   LIG     1      24.791  21.283  22.102  1.00  0.00     0.112 C 
HETATM    6  C   LIG     1      25.760  19.828  19.422  1.00  0.00     0.097 C 
HETATM    7  C   LIG     1      26.373  20.141  18.257  1.00  0.00     0.035 C 
HETATM    8  C   LIG     1      25.662  20.004  16.967  1.00  0.00     0.195 C 
HETATM    9  O   LIG     1      24.405  20.106  16.916  1.00  0.00    -0.287 OA
HETATM   10  C   LIG     1      27.876  20.404  18.241  1.00  0.00     0.093 C 
HETATM   11  C   LIG     1      28.380  21.194  19.514  1.00  0.00     0.140 C 
HETATM   12  C   LIG     1      28.399  20.968  16.860  1.00  0.00     0.092 C 
HETATM   13  C   LIG     1      29.947  20.860  16.842  1.00  0.00     0.052 C 
HETATM   14  C   LIG     1      27.786  20.196  15.673  1.00  0.00    -0.007 A 
HETATM   15  C   LIG     1      26.435  19.777  15.731  1.00  0.00     0.057 A 
HETATM   16  C   LIG     1      25.840  19.137  14.618  1.00  0.00     0.080 A 
HETATM   17  C   LIG     1      26.578  18.944  13.447  1.00  0.00     0.037 A 
HETATM   18  C   LIG     1      27.894  19.383  13.368  1.00  0.00     0.003 A 
HETATM   19  C   LIG     1      28.492  20.010  14.460  1.00  0.00     0.011 A 
HETATM   20  C   LIG     1      25.596  20.060  21.921  1.00  0.00     0.208 C 
HETATM   21  O   LIG     1      25.474  19.093  22.723  1.00  0.00    -0.288 OA
ENDROOT
BRANCH   5  22
HETATM   22  C   LIG     1      23.565  21.197  22.921  1.00  0.00     0.255 C 
HETATM   23  N   LIG     1      23.650  20.939  24.323  1.00  0.00    -0.366 N 
HETATM   24  H   LIG     1      24.577  20.868  24.797  1.00  0.00     0.159 HD
HETATM   25  H   LIG     1      22.781  20.848  24.895  1.00  0.00     0.159 HD
HETATM   26  O   LIG     1      22.434  21.321  22.379  1.00  0.00    -0.268 OA
ENDBRANCH   5  22
BRANCH   4  27
HETATM   27  O   LIG     1      24.328  23.558  21.507  1.00  0.00    -0.362 OA
HETATM   28  H   LIG     1      24.655  24.479  21.767  1.00  0.00     0.217 HD
ENDBRANCH   4  27
BRANCH   3  29
HETATM   29  N   LIG     1      27.250  23.721  21.048  1.00  0.00     0.091 N 
HETATM   30  C   LIG     1      27.399  23.913  22.502  1.00  0.00     0.310 C 
HETATM   31  C   LIG     1      26.817  24.963  20.389  1.00  0.00     0.310 C 
ENDBRANCH   3  29
BRANCH   1  32
HETATM   32  O   LIG     1      27.393  18.858  20.897  1.00  0.00    -0.374 OA
HETATM   33  H   LIG     1      26.840  18.031  20.923  1.00  0.00     0.211 HD
ENDBRANCH   1  32
BRANCH   6  34
HETATM   34  O   LIG     1      24.439  19.364  19.412  1.00  0.00    -0.361 OA
HETATM   35  H   LIG     1      23.962  19.075  18.569  1.00  0.00     0.217 HD
ENDBRANCH   6  34
BRANCH  11  36
HETATM   36  O   LIG     1      28.821  22.489  19.186  1.00  0.00    -0.394 OA
HETATM   37  H   LIG     1      29.228  22.876  20.006  1.00  0.00     0.210 HD
ENDBRANCH  11  36
BRANCH  12  38
HETATM   38  O   LIG     1      28.060  22.328  16.714  1.00  0.00    -0.385 OA
HETATM   39  H   LIG     1      27.359  22.401  16.015  1.00  0.00     0.211 HD
ENDBRANCH  12  38
BRANCH  16  40
HETATM   40  O   LIG     1      24.522  18.683  14.680  1.00  0.00    -0.360 OA
HETATM   41  H   LIG     1      23.980  18.507  13.842  1.00  0.00     0.217 HD
ENDBRANCH  16  40
TORSDOF 8
ENDMDL
MODEL 16
REMARK VINA RESULT:      -3.2      3.694      5.962
REMARK  8 active torsions:
REMARK  status: ('A' for Active; 'I' for Inactive)
REMARK    1  A    between atoms: O_1  and  C_2 
REMARK    2  A    between atoms: C_4  and  N_11 
REMARK    3  A    between atoms: C_5  and  O_6 
REMARK    4  A    between atoms: C_7  and  C_8 
REMARK       I    between atoms: C_8  and  N_9 
REMARK    5  A    between atoms: C_14  and  O_15 
REMARK    6  A    between atoms: C_20  and  O_21 
REMARK    7  A    between atoms: C_22  and  O_24 
REMARK    8  A    between atoms: C_27  and  O_28 
ROOT
HETATM    1  C   LIG     1      25.878  23.216  26.127  1.00  0.00     0.180 C 
HETATM    2  C   LIG     1      25.236  21.832  25.906  1.00  0.00     0.104 C 
HETATM    3  C   LIG     1      26.290  20.671  26.024  1.00  0.00     0.289 C 
HETATM    4  C   LIG     1      27.387  20.905  27.071  1.00  0.00     0.096 C 
HETATM    5  C   LIG     1      27.467  22.051  27.785  1.00  0.00     0.112 C 
HETATM    6  C   LIG     1      26.857  23.479  24.987  1.00  0.00     0.097 C 
HETATM    7  C   LIG     1      26.520  23.139  23.722  1.00  0.00     0.035 C 
HETATM    8  C   LIG     1      27.443  23.406  22.596  1.00  0.00     0.195 C 
HETATM    9  O   LIG     1      28.689  23.454  22.787  1.00  0.00    -0.287 OA
HETATM   10  C   LIG     1      25.092  22.704  23.411  1.00  0.00     0.093 C 
HETATM   11  C   LIG     1      24.454  21.814  24.552  1.00  0.00     0.140 C 
HETATM   12  C   LIG     1      24.914  22.133  21.948  1.00  0.00     0.092 C 
HETATM   13  C   LIG     1      23.397  22.060  21.632  1.00  0.00     0.052 C 
HETATM   14  C   LIG     1      25.644  23.014  20.913  1.00  0.00    -0.007 A 
HETATM   15  C   LIG     1      26.898  23.586  21.237  1.00  0.00     0.057 A 
HETATM   16  C   LIG     1      27.611  24.331  20.269  1.00  0.00     0.080 A 
HETATM   17  C   LIG     1      27.093  24.479  18.979  1.00  0.00     0.037 A 
HETATM   18  C   LIG     1      25.878  23.892  18.642  1.00  0.00     0.003 A 
HETATM   19  C   LIG     1      25.165  23.160  19.588  1.00  0.00     0.011 A 
HETATM   20  C   LIG     1      26.569  23.178  27.468  1.00  0.00     0.208 C 
HETATM   21  O   LIG     1      26.417  24.122  28.291  1.00  0.00    -0.288 OA
ENDROOT
BRANCH   5  22
HETATM   22  C   LIG     1      28.496  22.250  28.827  1.00  0.00     0.255 C 
HETATM   23  N   LIG     1      29.363  23.384  28.777  1.00  0.00    -0.366 N 
HETATM   24  H   LIG     1      29.244  24.115  28.043  1.00  0.00     0.159 HD
HETATM   25  H   LIG     1      30.109  23.507  29.497  1.00  0.00     0.159 HD
HETATM   26  O   LIG     1      28.632  21.402  29.748  1.00  0.00    -0.268 OA
ENDBRANCH   5  22
BRANCH   4  27
HETATM   27  O   LIG     1      28.309  19.869  27.261  1.00  0.00    -0.362 OA
HETATM   28  H   LIG     1      29.146  19.745  26.707  1.00  0.00     0.217 HD
ENDBRANCH   4  27
BRANCH   3  29
HETATM   29  N   LIG     1      25.570  19.383  26.242  1.00  0.00     0.091 N 
HETATM   30  C   LIG     1      25.520  18.491  25.069  1.00  0.00     0.310 C 
HETATM   31  C   LIG     1      24.234  19.560  26.833  1.00  0.00     0.310 C 
ENDBRANCH   3  29
BRANCH   1  32
HETATM   32  O   LIG     1      24.868  24.198  26.131  1.00  0.00    -0.374 OA
HETATM   33  H   LIG     1      24.729  24.490  27.072  1.00  0.00     0.211 HD
ENDBRANCH   1  32
BRANCH   6  34
HETATM   34  O   LIG     1      28.090  24.095  25.239  1.00  0.00    -0.361 OA
HETATM   35  H   LIG     1      28.379  24.955  24.794  1.00  0.00     0.217 HD
ENDBRANCH   6  34
BRANCH  11  36
HETATM   36  O   LIG     1      24.245  20.489  24.128  1.00  0.00    -0.394 OA
HETATM   37  H   LIG     1      23.534  20.106  24.707  1.00  0.00     0.210 HD
ENDBRANCH  11  36
BRANCH  12  38
HETATM   38  O   LIG     1      25.438  20.829  21.852  1.00  0.00    -0.385 OA
HETATM   39  H   LIG     1      24.680  20.196  21.752  1.00  0.00     0.211 HD
ENDBRANCH  12  38
BRANCH  16  40
HETATM   40  O   LIG     1      28.828  24.934  20.590  1.00  0.00    -0.360 OA
HETATM   41  H   LIG     1      28.935  25.941  20.608  1.00  0.00     0.217 HD
ENDBRANCH  16  40
TORSDOF 8
ENDMDL
MODEL 17
REMARK VINA RESULT:      -3.1      4.928      9.597
REMARK  8 active torsions:
REMARK  status: ('A' for Active; 'I' for Inactive)
REMARK    1  A    between atoms: O_1  and  C_2 
REMARK    2  A    between atoms: C_4  and  N_11 
REMARK    3  A    between atoms: C_5  and  O_6 
REMARK    4  A    between atoms: C_7  and  C_8 
REMARK       I    between atoms: C_8  and  N_9 
REMARK    5  A    between atoms: C_14  and  O_15 
REMARK    6  A    between atoms: C_20  and  O_21 
REMARK    7  A    between atoms: C_22  and  O_24 
REMARK    8  A    between atoms: C_27  and  O_28 
ROOT
HETATM    1  C   LIG     1      25.003  22.260  25.077  1.00  0.00     0.180 C 
HETATM    2  C   LIG     1      26.507  21.990  25.272  1.00  0.00     0.104 C 
HETATM    3  C   LIG     1      26.962  20.663  24.560  1.00  0.00     0.289 C 
HETATM    4  C   LIG     1      26.242  20.366  23.238  1.00  0.00     0.096 C 
HETATM    5  C   LIG     1      25.253  21.158  22.764  1.00  0.00     0.112 C 
HETATM    6  C   LIG     1      24.220  21.163  25.792  1.00  0.00     0.097 C 
HETATM    7  C   LIG     1      24.627  20.733  27.008  1.00  0.00     0.035 C 
HETATM    8  C   LIG     1      23.872  19.686  27.732  1.00  0.00     0.195 C 
HETATM    9  O   LIG     1      23.197  18.830  27.098  1.00  0.00    -0.287 OA
HETATM   10  C   LIG     1      25.723  21.491  27.750  1.00  0.00     0.093 C 
HETATM   11  C   LIG     1      26.865  22.021  26.794  1.00  0.00     0.140 C 
HETATM   12  C   LIG     1      26.236  20.744  29.045  1.00  0.00     0.092 C 
HETATM   13  C   LIG     1      27.068  21.745  29.890  1.00  0.00     0.052 C 
HETATM   14  C   LIG     1      25.060  20.182  29.870  1.00  0.00    -0.007 A 
HETATM   15  C   LIG     1      23.938  19.631  29.205  1.00  0.00     0.057 A 
HETATM   16  C   LIG     1      22.889  19.043  29.950  1.00  0.00     0.080 A 
HETATM   17  C   LIG     1      22.971  18.980  31.344  1.00  0.00     0.037 A 
HETATM   18  C   LIG     1      24.084  19.489  32.003  1.00  0.00     0.003 A 
HETATM   19  C   LIG     1      25.122  20.074  31.280  1.00  0.00     0.011 A 
HETATM   20  C   LIG     1      24.739  22.265  23.591  1.00  0.00     0.208 C 
HETATM   21  O   LIG     1      24.047  23.182  23.070  1.00  0.00    -0.288 OA
ENDROOT
BRANCH   5  22
HETATM   22  C   LIG     1      24.600  20.895  21.465  1.00  0.00     0.255 C 
HETATM   23  N   LIG     1      24.636  21.876  20.428  1.00  0.00    -0.366 N 
HETATM   24  H   LIG     1      25.171  22.763  20.550  1.00  0.00     0.159 HD
HETATM   25  H   LIG     1      24.147  21.702  19.522  1.00  0.00     0.159 HD
HETATM   26  O   LIG     1      23.981  19.814  21.278  1.00  0.00    -0.268 OA
ENDBRANCH   5  22
BRANCH   4  27
HETATM   27  O   LIG     1      26.661  19.232  22.533  1.00  0.00    -0.362 OA
HETATM   28  H   LIG     1      27.630  18.973  22.397  1.00  0.00     0.217 HD
ENDBRANCH   4  27
BRANCH   3  29
HETATM   29  N   LIG     1      28.445  20.680  24.402  1.00  0.00     0.091 N 
HETATM   30  C   LIG     1      28.943  21.518  23.296  1.00  0.00     0.310 C 
HETATM   31  C   LIG     1      29.038  19.334  24.359  1.00  0.00     0.310 C 
ENDBRANCH   3  29
BRANCH   1  32
HETATM   32  O   LIG     1      24.684  23.517  25.629  1.00  0.00    -0.374 OA
HETATM   33  H   LIG     1      24.517  23.390  26.601  1.00  0.00     0.211 HD
ENDBRANCH   1  32
BRANCH   6  34
HETATM   34  O   LIG     1      23.069  20.619  25.209  1.00  0.00    -0.361 OA
HETATM   35  H   LIG     1      22.883  19.626  25.176  1.00  0.00     0.217 HD
ENDBRANCH   6  34
BRANCH  11  36
HETATM   36  O   LIG     1      28.087  21.363  27.021  1.00  0.00    -0.394 OA
HETATM   37  H   LIG     1      27.897  20.593  27.621  1.00  0.00     0.210 HD
ENDBRANCH  11  36
BRANCH  12  38
HETATM   38  O   LIG     1      27.078  19.667  28.701  1.00  0.00    -0.385 OA
HETATM   39  H   LIG     1      27.648  19.456  29.485  1.00  0.00     0.211 HD
ENDBRANCH  12  38
BRANCH  16  40
HETATM   40  O   LIG     1      21.759  18.533  29.308  1.00  0.00    -0.360 OA
HETATM   41  H   LIG     1      21.158  17.848  29.751  1.00  0.00     0.217 HD
ENDBRANCH  16  40
TORSDOF 8
ENDMDL
MODEL 18
REMARK VINA RESULT:      -3.0      4.455      9.089
REMARK  8 active torsions:
REMARK  status: ('A' for Active; 'I' for Inactive)
REMARK    1  A    between atoms: O_1  and  C_2 
REMARK    2  A    between atoms: C_4  and  N_11 
REMARK    3  A    between atoms: C_5  and  O_6 
REMARK    4  A    between atoms: C_7  and  C_8 
REMARK       I    between atoms: C_8  and  N_9 
REMARK    5  A    between atoms: C_14  and  O_15 
REMARK    6  A    between atoms: C_20  and  O_21 
REMARK    7  A    between atoms: C_22  and  O_24 
REMARK    8  A    between atoms: C_27  and  O_28 
ROOT
HETATM    1  C   LIG     1      28.249  21.456  24.736  1.00  0.00     0.180 C 
HETATM    2  C   LIG     1      27.315  21.324  25.955  1.00  0.00     0.104 C 
HETATM    3  C   LIG     1      25.839  21.746  25.611  1.00  0.00     0.289 C 
HETATM    4  C   LIG     1      25.385  21.387  24.191  1.00  0.00     0.096 C 
HETATM    5  C   LIG     1      26.216  20.810  23.293  1.00  0.00     0.112 C 
HETATM    6  C   LIG     1      28.356  22.933  24.369  1.00  0.00     0.097 C 
HETATM    7  C   LIG     1      28.467  23.861  25.347  1.00  0.00     0.035 C 
HETATM    8  C   LIG     1      28.596  25.297  25.016  1.00  0.00     0.195 C 
HETATM    9  O   LIG     1      28.107  25.753  23.946  1.00  0.00    -0.287 OA
HETATM   10  C   LIG     1      28.708  23.416  26.786  1.00  0.00     0.093 C 
HETATM   11  C   LIG     1      27.908  22.108  27.171  1.00  0.00     0.140 C 
HETATM   12  C   LIG     1      28.595  24.594  27.833  1.00  0.00     0.092 C 
HETATM   13  C   LIG     1      29.195  24.111  29.180  1.00  0.00     0.052 C 
HETATM   14  C   LIG     1      29.327  25.857  27.334  1.00  0.00    -0.007 A 
HETATM   15  C   LIG     1      29.274  26.203  25.962  1.00  0.00     0.057 A 
HETATM   16  C   LIG     1      29.876  27.399  25.507  1.00  0.00     0.080 A 
HETATM   17  C   LIG     1      30.500  28.258  26.416  1.00  0.00     0.037 A 
HETATM   18  C   LIG     1      30.527  27.944  27.770  1.00  0.00     0.003 A 
HETATM   19  C   LIG     1      29.942  26.766  28.230  1.00  0.00     0.011 A 
HETATM   20  C   LIG     1      27.644  20.639  23.621  1.00  0.00     0.208 C 
HETATM   21  O   LIG     1      28.363  19.851  22.945  1.00  0.00    -0.288 OA
ENDROOT
BRANCH   5  22
HETATM   22  C   LIG     1      25.758  20.421  21.944  1.00  0.00     0.255 C 
HETATM   23  N   LIG     1      26.407  20.942  20.783  1.00  0.00    -0.366 N 
HETATM   24  H   LIG     1      27.247  21.555  20.871  1.00  0.00     0.159 HD
HETATM   25  H   LIG     1      26.063  20.690  19.830  1.00  0.00     0.159 HD
HETATM   26  O   LIG     1      24.771  19.650  21.811  1.00  0.00    -0.268 OA
ENDBRANCH   5  22
BRANCH   4  27
HETATM   27  O   LIG     1      24.057  21.680  23.860  1.00  0.00    -0.362 OA
HETATM   28  H   LIG     1      23.589  21.339  23.031  1.00  0.00     0.217 HD
ENDBRANCH   4  27
BRANCH   3  29
HETATM   29  N   LIG     1      24.923  21.195  26.651  1.00  0.00     0.091 N 
HETATM   30  C   LIG     1      24.570  19.774  26.481  1.00  0.00     0.310 C 
HETATM   31  C   LIG     1      23.721  22.020  26.859  1.00  0.00     0.310 C 
ENDBRANCH   3  29
BRANCH   1  32
HETATM   32  O   LIG     1      29.521  20.950  25.072  1.00  0.00    -0.374 OA
HETATM   33  H   LIG     1      30.199  21.459  24.554  1.00  0.00     0.211 HD
ENDBRANCH   1  32
BRANCH   6  34
HETATM   34  O   LIG     1      28.366  23.330  23.026  1.00  0.00    -0.361 OA
HETATM   35  H   LIG     1      29.110  23.880  22.619  1.00  0.00     0.217 HD
ENDBRANCH   6  34
BRANCH  11  36
HETATM   36  O   LIG     1      26.903  22.368  28.120  1.00  0.00    -0.394 OA
HETATM   37  H   LIG     1      26.049  22.466  27.622  1.00  0.00     0.210 HD
ENDBRANCH  11  36
BRANCH  12  38
HETATM   38  O   LIG     1      27.247  24.936  28.060  1.00  0.00    -0.385 OA
HETATM   39  H   LIG     1      26.693  24.124  27.927  1.00  0.00     0.211 HD
ENDBRANCH  12  38
BRANCH  16  40
HETATM   40  O   LIG     1      29.865  27.729  24.151  1.00  0.00    -0.360 OA
HETATM   41  H   LIG     1      29.547  27.075  23.446  1.00  0.00     0.217 HD
ENDBRANCH  16  40
TORSDOF 8
ENDMDL
MODEL 19
REMARK VINA RESULT:      -2.6      2.377      7.313
REMARK  8 active torsions:
REMARK  status: ('A' for Active; 'I' for Inactive)
REMARK    1  A    between atoms: O_1  and  C_2 
REMARK    2  A    between atoms: C_4  and  N_11 
REMARK    3  A    between atoms: C_5  and  O_6 
REMARK    4  A    between atoms: C_7  and  C_8 
REMARK       I    between atoms: C_8  and  N_9 
REMARK    5  A    between atoms: C_14  and  O_15 
REMARK    6  A    between atoms: C_20  and  O_21 
REMARK    7  A    between atoms: C_22  and  O_24 
REMARK    8  A    between atoms: C_27  and  O_28 
ROOT
HETATM    1  C   LIG     1      25.667  23.049  19.740  1.00  0.00     0.180 C 
HETATM    2  C   LIG     1      26.933  23.742  19.201  1.00  0.00     0.104 C 
HETATM    3  C   LIG     1      27.967  22.706  18.622  1.00  0.00     0.289 C 
HETATM    4  C   LIG     1      27.337  21.495  17.922  1.00  0.00     0.096 C 
HETATM    5  C   LIG     1      25.998  21.311  17.869  1.00  0.00     0.112 C 
HETATM    6  C   LIG     1      26.060  22.197  20.943  1.00  0.00     0.097 C 
HETATM    7  C   LIG     1      26.943  22.679  21.847  1.00  0.00     0.035 C 
HETATM    8  C   LIG     1      27.322  21.882  23.034  1.00  0.00     0.195 C 
HETATM    9  O   LIG     1      27.279  20.621  22.998  1.00  0.00    -0.287 OA
HETATM   10  C   LIG     1      27.369  24.142  21.781  1.00  0.00     0.093 C 
HETATM   11  C   LIG     1      27.547  24.669  20.300  1.00  0.00     0.140 C 
HETATM   12  C   LIG     1      28.561  24.493  22.757  1.00  0.00     0.092 C 
HETATM   13  C   LIG     1      28.666  26.038  22.865  1.00  0.00     0.052 C 
HETATM   14  C   LIG     1      28.346  23.864  24.149  1.00  0.00    -0.007 A 
HETATM   15  C   LIG     1      27.782  22.570  24.255  1.00  0.00     0.057 A 
HETATM   16  C   LIG     1      27.653  21.952  25.521  1.00  0.00     0.080 A 
HETATM   17  C   LIG     1      28.109  22.607  26.669  1.00  0.00     0.037 A 
HETATM   18  C   LIG     1      28.695  23.864  26.571  1.00  0.00     0.003 A 
HETATM   19  C   LIG     1      28.824  24.484  25.330  1.00  0.00     0.011 A 
HETATM   20  C   LIG     1      25.102  22.214  18.617  1.00  0.00     0.208 C 
HETATM   21  O   LIG     1      23.869  22.253  18.350  1.00  0.00    -0.288 OA
ENDROOT
BRANCH   5  22
HETATM   22  C   LIG     1      25.396  20.170  17.150  1.00  0.00     0.255 C 
HETATM   23  N   LIG     1      24.401  19.363  17.782  1.00  0.00    -0.366 N 
HETATM   24  H   LIG     1      24.044  19.602  18.733  1.00  0.00     0.159 HD
HETATM   25  H   LIG     1      23.998  18.538  17.284  1.00  0.00     0.159 HD
HETATM   26  O   LIG     1      25.780  19.884  15.985  1.00  0.00    -0.268 OA
ENDBRANCH   5  22
BRANCH   4  27
HETATM   27  O   LIG     1      28.215  20.581  17.331  1.00  0.00    -0.362 OA
HETATM   28  H   LIG     1      29.197  20.762  17.164  1.00  0.00     0.217 HD
ENDBRANCH   4  27
BRANCH   3  29
HETATM   29  N   LIG     1      28.932  23.425  17.741  1.00  0.00     0.091 N 
HETATM   30  C   LIG     1      30.263  23.655  18.333  1.00  0.00     0.310 C 
HETATM   31  C   LIG     1      28.382  24.666  17.172  1.00  0.00     0.310 C 
ENDBRANCH   3  29
BRANCH   1  32
HETATM   32  O   LIG     1      24.734  24.031  20.129  1.00  0.00    -0.374 OA
HETATM   33  H   LIG     1      24.607  24.652  19.363  1.00  0.00     0.211 HD
ENDBRANCH   1  32
BRANCH   6  34
HETATM   34  O   LIG     1      25.491  20.931  21.131  1.00  0.00    -0.361 OA
HETATM   35  H   LIG     1      24.734  20.756  21.777  1.00  0.00     0.217 HD
ENDBRANCH   6  34
BRANCH  11  36
HETATM   36  O   LIG     1      28.892  24.953  20.004  1.00  0.00    -0.394 OA
HETATM   37  H   LIG     1      28.967  25.938  19.900  1.00  0.00     0.210 HD
ENDBRANCH  11  36
BRANCH  12  38
HETATM   38  O   LIG     1      29.784  24.012  22.248  1.00  0.00    -0.385 OA
HETATM   39  H   LIG     1      29.838  23.040  22.437  1.00  0.00     0.211 HD
ENDBRANCH  12  38
BRANCH  16  40
HETATM   40  O   LIG     1      27.061  20.694  25.641  1.00  0.00    -0.360 OA
HETATM   41  H   LIG     1      26.067  20.587  25.810  1.00  0.00     0.217 HD
ENDBRANCH  16  40
TORSDOF 8
ENDMDL
