MODEL 1
REMARK VINA RESULT:      -9.7      0.000      0.000
REMARK  4 active torsions:
REMARK  status: ('A' for Active; 'I' for Inactive)
REMARK    1  A    between atoms: C_2  and  C_3 
REMARK    2  A    between atoms: C_2  and  C_11 
REMARK    3  A    between atoms: C_6  and  O_7 
REMARK    4  A    between atoms: C_14  and  O_15 
ROOT
HETATM    1  C   LIG     1      16.006  35.484  21.629  1.00  0.00     0.025 C 
HETATM    2  C   LIG     1      16.490  36.819  22.250  1.00  0.00     0.007 C 
HETATM    3  C   LIG     1      15.260  37.760  22.311  1.00  0.00     0.025 C 
ENDROOT
BRANCH   2   4
HETATM    4  C   LIG     1      17.075  36.494  23.638  1.00  0.00    -0.045 A 
HETATM    5  C   LIG     1      17.550  37.551  24.446  1.00  0.00     0.011 A 
HETATM    6  C   LIG     1      18.091  37.303  25.710  1.00  0.00     0.037 A 
HETATM    7  C   LIG     1      18.176  35.998  26.195  1.00  0.00     0.065 A 
HETATM    8  C   LIG     1      17.717  34.936  25.409  1.00  0.00     0.037 A 
HETATM    9  C   LIG     1      17.174  35.176  24.144  1.00  0.00     0.011 A 
BRANCH   7  10
HETATM   10  O   LIG     1      18.718  35.766  27.457  1.00  0.00    -0.361 OA
HETATM   11  H   LIG     1      18.177  35.912  28.302  1.00  0.00     0.217 HD
ENDBRANCH   7  10
ENDBRANCH   2   4
BRANCH   2  12
HETATM   12  C   LIG     1      17.567  37.527  21.407  1.00  0.00    -0.045 A 
HETATM   13  C   LIG     1      18.262  36.791  20.423  1.00  0.00     0.011 A 
HETATM   14  C   LIG     1      19.248  37.390  19.637  1.00  0.00     0.037 A 
HETATM   15  C   LIG     1      19.568  38.739  19.818  1.00  0.00     0.065 A 
HETATM   16  C   LIG     1      18.897  39.484  20.789  1.00  0.00     0.037 A 
HETATM   17  C   LIG     1      17.909  38.889  21.579  1.00  0.00     0.011 A 
BRANCH  15  18
HETATM   18  O   LIG     1      20.550  39.348  19.040  1.00  0.00    -0.361 OA
HETATM   19  H   LIG     1      21.505  39.436  19.366  1.00  0.00     0.217 HD
ENDBRANCH  15  18
ENDBRANCH   2  12
TORSDOF 4
ENDMDL
MODEL 2
REMARK VINA RESULT:      -9.6      0.080      5.545
REMARK  4 active torsions:
REMARK  status: ('A' for Active; 'I' for Inactive)
REMARK    1  A    between atoms: C_2  and  C_3 
REMARK    2  A    between atoms: C_2  and  C_11 
REMARK    3  A    between atoms: C_6  and  O_7 
REMARK    4  A    between atoms: C_14  and  O_15 
ROOT
HETATM    1  C   LIG     1      15.291  37.807  22.328  1.00  0.00     0.025 C 
HETATM    2  C   LIG     1      16.533  36.882  22.283  1.00  0.00     0.007 C 
HETATM    3  C   LIG     1      16.068  35.531  21.684  1.00  0.00     0.025 C 
ENDROOT
BRANCH   2   4
HETATM    4  C   LIG     1      17.601  37.590  21.426  1.00  0.00    -0.045 A 
HETATM    5  C   LIG     1      18.292  36.849  20.442  1.00  0.00     0.011 A 
HETATM    6  C   LIG     1      19.270  37.448  19.644  1.00  0.00     0.037 A 
HETATM    7  C   LIG     1      19.586  38.795  19.812  1.00  0.00     0.065 A 
HETATM    8  C   LIG     1      18.919  39.547  20.786  1.00  0.00     0.037 A 
HETATM    9  C   LIG     1      17.939  38.954  21.587  1.00  0.00     0.011 A 
BRANCH   7  10
HETATM   10  O   LIG     1      20.563  39.380  19.010  1.00  0.00    -0.361 OA
HETATM   11  H   LIG     1      20.394  40.249  18.516  1.00  0.00     0.217 HD
ENDBRANCH   7  10
ENDBRANCH   2   4
BRANCH   2  12
HETATM   12  C   LIG     1      17.123  36.588  23.675  1.00  0.00    -0.045 A 
HETATM   13  C   LIG     1      17.170  35.253  24.131  1.00  0.00     0.011 A 
HETATM   14  C   LIG     1      17.694  34.939  25.387  1.00  0.00     0.037 A 
HETATM   15  C   LIG     1      18.179  35.952  26.220  1.00  0.00     0.065 A 
HETATM   16  C   LIG     1      18.136  37.279  25.790  1.00  0.00     0.037 A 
HETATM   17  C   LIG     1      17.613  37.599  24.534  1.00  0.00     0.011 A 
BRANCH  15  18
HETATM   18  O   LIG     1      18.704  35.651  27.475  1.00  0.00    -0.361 OA
HETATM   19  H   LIG     1      18.155  35.169  28.176  1.00  0.00     0.217 HD
ENDBRANCH  15  18
ENDBRANCH   2  12
TORSDOF 4
ENDMDL
MODEL 3
REMARK VINA RESULT:      -8.0      2.934      5.037
REMARK  4 active torsions:
REMARK  status: ('A' for Active; 'I' for Inactive)
REMARK    1  A    between atoms: C_2  and  C_3 
REMARK    2  A    between atoms: C_2  and  C_11 
REMARK    3  A    between atoms: C_6  and  O_7 
REMARK    4  A    between atoms: C_14  and  O_15 
ROOT
HETATM    1  C   LIG     1      15.212  36.720  22.061  1.00  0.00     0.025 C 
HETATM    2  C   LIG     1      16.463  35.946  21.575  1.00  0.00     0.007 C 
HETATM    3  C   LIG     1      17.079  35.259  22.820  1.00  0.00     0.025 C 
ENDROOT
BRANCH   2   4
HETATM    4  C   LIG     1      15.995  34.946  20.500  1.00  0.00    -0.045 A 
HETATM    5  C   LIG     1      15.900  33.576  20.832  1.00  0.00     0.011 A 
HETATM    6  C   LIG     1      15.484  32.634  19.888  1.00  0.00     0.037 A 
HETATM    7  C   LIG     1      15.158  33.033  18.593  1.00  0.00     0.065 A 
HETATM    8  C   LIG     1      15.251  34.384  18.240  1.00  0.00     0.037 A 
HETATM    9  C   LIG     1      15.666  35.332  19.179  1.00  0.00     0.011 A 
BRANCH   7  10
HETATM   10  O   LIG     1      14.744  32.082  17.662  1.00  0.00    -0.361 OA
HETATM   11  H   LIG     1      15.229  31.957  16.780  1.00  0.00     0.217 HD
ENDBRANCH   7  10
ENDBRANCH   2   4
BRANCH   2  12
HETATM   12  C   LIG     1      17.547  36.858  20.972  1.00  0.00    -0.045 A 
HETATM   13  C   LIG     1      17.675  38.180  21.450  1.00  0.00     0.011 A 
HETATM   14  C   LIG     1      18.642  39.044  20.931  1.00  0.00     0.037 A 
HETATM   15  C   LIG     1      19.501  38.610  19.917  1.00  0.00     0.065 A 
HETATM   16  C   LIG     1      19.387  37.309  19.426  1.00  0.00     0.037 A 
HETATM   17  C   LIG     1      18.421  36.439  19.942  1.00  0.00     0.011 A 
BRANCH  15  18
HETATM   18  O   LIG     1      20.469  39.462  19.392  1.00  0.00    -0.361 OA
HETATM   19  H   LIG     1      20.744  40.311  19.871  1.00  0.00     0.217 HD
ENDBRANCH  15  18
ENDBRANCH   2  12
TORSDOF 4
ENDMDL
MODEL 4
REMARK VINA RESULT:      -8.0      2.945      5.522
REMARK  4 active torsions:
REMARK  status: ('A' for Active; 'I' for Inactive)
REMARK    1  A    between atoms: C_2  and  C_3 
REMARK    2  A    between atoms: C_2  and  C_11 
REMARK    3  A    between atoms: C_6  and  O_7 
REMARK    4  A    between atoms: C_14  and  O_15 
ROOT
HETATM    1  C   LIG     1      17.084  35.230  22.798  1.00  0.00     0.025 C 
HETATM    2  C   LIG     1      16.468  35.921  21.556  1.00  0.00     0.007 C 
HETATM    3  C   LIG     1      15.218  36.696  22.044  1.00  0.00     0.025 C 
ENDROOT
BRANCH   2   4
HETATM    4  C   LIG     1      17.553  36.836  20.954  1.00  0.00    -0.045 A 
HETATM    5  C   LIG     1      17.672  38.161  21.429  1.00  0.00     0.011 A 
HETATM    6  C   LIG     1      18.638  39.027  20.910  1.00  0.00     0.037 A 
HETATM    7  C   LIG     1      19.503  38.595  19.906  1.00  0.00     0.065 A 
HETATM    8  C   LIG     1      19.398  37.288  19.416  1.00  0.00     0.037 A 
HETATM    9  C   LIG     1      18.434  36.416  19.930  1.00  0.00     0.011 A 
BRANCH   7  10
HETATM   10  O   LIG     1      20.462  39.469  19.398  1.00  0.00    -0.361 OA
HETATM   11  H   LIG     1      20.258  40.450  19.249  1.00  0.00     0.217 HD
ENDBRANCH   7  10
ENDBRANCH   2   4
BRANCH   2  12
HETATM   12  C   LIG     1      15.999  34.926  20.478  1.00  0.00    -0.045 A 
HETATM   13  C   LIG     1      15.900  33.556  20.804  1.00  0.00     0.011 A 
HETATM   14  C   LIG     1      15.481  32.619  19.858  1.00  0.00     0.037 A 
HETATM   15  C   LIG     1      15.156  33.025  18.561  1.00  0.00     0.065 A 
HETATM   16  C   LIG     1      15.253  34.374  18.215  1.00  0.00     0.037 A 
HETATM   17  C   LIG     1      15.672  35.318  19.158  1.00  0.00     0.011 A 
BRANCH  15  18
HETATM   18  O   LIG     1      14.737  32.099  17.608  1.00  0.00    -0.361 OA
HETATM   19  H   LIG     1      13.917  31.523  17.755  1.00  0.00     0.217 HD
ENDBRANCH  15  18
ENDBRANCH   2  12
TORSDOF 4
ENDMDL
MODEL 5
REMARK VINA RESULT:      -7.5      2.503      3.683
REMARK  4 active torsions:
REMARK  status: ('A' for Active; 'I' for Inactive)
REMARK    1  A    between atoms: C_2  and  C_3 
REMARK    2  A    between atoms: C_2  and  C_11 
REMARK    3  A    between atoms: C_6  and  O_7 
REMARK    4  A    between atoms: C_14  and  O_15 
ROOT
HETATM    1  C   LIG     1      15.641  38.417  22.748  1.00  0.00     0.025 C 
HETATM    2  C   LIG     1      16.831  37.454  22.507  1.00  0.00     0.007 C 
HETATM    3  C   LIG     1      17.531  37.251  23.875  1.00  0.00     0.025 C 
ENDROOT
BRANCH   2   4
HETATM    4  C   LIG     1      16.255  36.150  21.920  1.00  0.00    -0.045 A 
HETATM    5  C   LIG     1      14.893  36.109  21.550  1.00  0.00     0.011 A 
HETATM    6  C   LIG     1      14.327  34.947  21.017  1.00  0.00     0.037 A 
HETATM    7  C   LIG     1      15.104  33.802  20.846  1.00  0.00     0.065 A 
HETATM    8  C   LIG     1      16.454  33.819  21.213  1.00  0.00     0.037 A 
HETATM    9  C   LIG     1      17.026  34.977  21.746  1.00  0.00     0.011 A 
BRANCH   7  10
HETATM   10  O   LIG     1      14.526  32.651  20.313  1.00  0.00    -0.361 OA
HETATM   11  H   LIG     1      14.214  32.612  19.350  1.00  0.00     0.217 HD
ENDBRANCH   7  10
ENDBRANCH   2   4
BRANCH   2  12
HETATM   12  C   LIG     1      17.883  38.019  21.534  1.00  0.00    -0.045 A 
HETATM   13  C   LIG     1      18.342  37.208  20.473  1.00  0.00     0.011 A 
HETATM   14  C   LIG     1      19.295  37.677  19.568  1.00  0.00     0.037 A 
HETATM   15  C   LIG     1      19.820  38.965  19.703  1.00  0.00     0.065 A 
HETATM   16  C   LIG     1      19.384  39.782  20.748  1.00  0.00     0.037 A 
HETATM   17  C   LIG     1      18.429  39.318  21.658  1.00  0.00     0.011 A 
BRANCH  15  18
HETATM   18  O   LIG     1      20.772  39.444  18.807  1.00  0.00    -0.361 OA
HETATM   19  H   LIG     1      21.393  40.206  19.051  1.00  0.00     0.217 HD
ENDBRANCH  15  18
ENDBRANCH   2  12
TORSDOF 4
ENDMDL
MODEL 6
REMARK VINA RESULT:      -7.4      2.496      5.550
REMARK  4 active torsions:
REMARK  status: ('A' for Active; 'I' for Inactive)
REMARK    1  A    between atoms: C_2  and  C_3 
REMARK    2  A    between atoms: C_2  and  C_11 
REMARK    3  A    between atoms: C_6  and  O_7 
REMARK    4  A    between atoms: C_14  and  O_15 
ROOT
HETATM    1  C   LIG     1      17.536  37.210  23.897  1.00  0.00     0.025 C 
HETATM    2  C   LIG     1      16.829  37.431  22.536  1.00  0.00     0.007 C 
HETATM    3  C   LIG     1      15.640  38.389  22.795  1.00  0.00     0.025 C 
ENDROOT
BRANCH   2   4
HETATM    4  C   LIG     1      17.876  38.011  21.565  1.00  0.00    -0.045 A 
HETATM    5  C   LIG     1      18.316  37.221  20.480  1.00  0.00     0.011 A 
HETATM    6  C   LIG     1      19.265  37.705  19.576  1.00  0.00     0.037 A 
HETATM    7  C   LIG     1      19.801  38.983  19.735  1.00  0.00     0.065 A 
HETATM    8  C   LIG     1      19.384  39.780  20.807  1.00  0.00     0.037 A 
HETATM    9  C   LIG     1      18.434  39.302  21.714  1.00  0.00     0.011 A 
BRANCH   7  10
HETATM   10  O   LIG     1      20.746  39.452  18.826  1.00  0.00    -0.361 OA
HETATM   11  H   LIG     1      21.741  39.352  18.996  1.00  0.00     0.217 HD
ENDBRANCH   7  10
ENDBRANCH   2   4
BRANCH   2  12
HETATM   12  C   LIG     1      16.252  36.136  21.934  1.00  0.00    -0.045 A 
HETATM   13  C   LIG     1      14.891  36.100  21.561  1.00  0.00     0.011 A 
HETATM   14  C   LIG     1      14.324  34.948  21.014  1.00  0.00     0.037 A 
HETATM   15  C   LIG     1      15.101  33.801  20.831  1.00  0.00     0.065 A 
HETATM   16  C   LIG     1      16.447  33.813  21.198  1.00  0.00     0.037 A 
HETATM   17  C   LIG     1      17.021  34.964  21.746  1.00  0.00     0.011 A 
BRANCH  15  18
HETATM   18  O   LIG     1      14.546  32.645  20.286  1.00  0.00    -0.361 OA
HETATM   19  H   LIG     1      14.625  32.435  19.298  1.00  0.00     0.217 HD
ENDBRANCH  15  18
ENDBRANCH   2  12
TORSDOF 4
ENDMDL
MODEL 7
REMARK VINA RESULT:      -6.8      2.174      3.362
REMARK  4 active torsions:
REMARK  status: ('A' for Active; 'I' for Inactive)
REMARK    1  A    between atoms: C_2  and  C_3 
REMARK    2  A    between atoms: C_2  and  C_11 
REMARK    3  A    between atoms: C_6  and  O_7 
REMARK    4  A    between atoms: C_14  and  O_15 
ROOT
HETATM    1  C   LIG     1      15.902  38.857  23.173  1.00  0.00     0.025 C 
HETATM    2  C   LIG     1      17.002  37.863  22.721  1.00  0.00     0.007 C 
HETATM    3  C   LIG     1      18.128  38.702  22.067  1.00  0.00     0.025 C 
ENDROOT
BRANCH   2   4
HETATM    4  C   LIG     1      17.467  37.094  23.973  1.00  0.00    -0.045 A 
HETATM    5  C   LIG     1      17.183  35.714  24.075  1.00  0.00     0.011 A 
HETATM    6  C   LIG     1      17.583  34.977  25.193  1.00  0.00     0.037 A 
HETATM    7  C   LIG     1      18.269  35.599  26.236  1.00  0.00     0.065 A 
HETATM    8  C   LIG     1      18.555  36.966  26.159  1.00  0.00     0.037 A 
HETATM    9  C   LIG     1      18.159  37.709  25.043  1.00  0.00     0.011 A 
BRANCH   7  10
HETATM   10  O   LIG     1      18.661  34.852  27.345  1.00  0.00    -0.361 OA
HETATM   11  H   LIG     1      18.208  34.961  28.245  1.00  0.00     0.217 HD
ENDBRANCH   7  10
ENDBRANCH   2   4
BRANCH   2  12
HETATM   12  C   LIG     1      16.512  36.852  21.667  1.00  0.00    -0.045 A 
HETATM   13  C   LIG     1      17.374  36.495  20.607  1.00  0.00     0.011 A 
HETATM   14  C   LIG     1      16.972  35.585  19.628  1.00  0.00     0.037 A 
HETATM   15  C   LIG     1      15.697  35.013  19.679  1.00  0.00     0.065 A 
HETATM   16  C   LIG     1      14.828  35.357  20.715  1.00  0.00     0.037 A 
HETATM   17  C   LIG     1      15.224  36.268  21.699  1.00  0.00     0.011 A 
BRANCH  15  18
HETATM   18  O   LIG     1      15.285  34.104  18.708  1.00  0.00    -0.361 OA
HETATM   19  H   LIG     1      14.326  34.075  18.383  1.00  0.00     0.217 HD
ENDBRANCH  15  18
ENDBRANCH   2  12
TORSDOF 4
ENDMDL
MODEL 8
REMARK VINA RESULT:      -6.8      2.157      5.512
REMARK  4 active torsions:
REMARK  status: ('A' for Active; 'I' for Inactive)
REMARK    1  A    between atoms: C_2  and  C_3 
REMARK    2  A    between atoms: C_2  and  C_11 
REMARK    3  A    between atoms: C_6  and  O_7 
REMARK    4  A    between atoms: C_14  and  O_15 
ROOT
HETATM    1  C   LIG     1      18.197  38.703  22.018  1.00  0.00     0.025 C 
HETATM    2  C   LIG     1      17.054  37.896  22.684  1.00  0.00     0.007 C 
HETATM    3  C   LIG     1      15.971  38.918  23.113  1.00  0.00     0.025 C 
ENDROOT
BRANCH   2   4
HETATM    4  C   LIG     1      16.548  36.876  21.646  1.00  0.00    -0.045 A 
HETATM    5  C   LIG     1      17.393  36.511  20.574  1.00  0.00     0.011 A 
HETATM    6  C   LIG     1      16.974  35.592  19.608  1.00  0.00     0.037 A 
HETATM    7  C   LIG     1      15.705  35.020  19.685  1.00  0.00     0.065 A 
HETATM    8  C   LIG     1      14.849  35.372  20.734  1.00  0.00     0.037 A 
HETATM    9  C   LIG     1      15.261  36.290  21.704  1.00  0.00     0.011 A 
BRANCH   7  10
HETATM   10  O   LIG     1      15.301  34.106  18.715  1.00  0.00    -0.361 OA
HETATM   11  H   LIG     1      15.118  33.136  18.945  1.00  0.00     0.217 HD
ENDBRANCH   7  10
ENDBRANCH   2   4
BRANCH   2  12
HETATM   12  C   LIG     1      17.501  37.142  23.950  1.00  0.00    -0.045 A 
HETATM   13  C   LIG     1      17.221  35.762  24.062  1.00  0.00     0.011 A 
HETATM   14  C   LIG     1      17.605  35.039  25.192  1.00  0.00     0.037 A 
HETATM   15  C   LIG     1      18.273  35.676  26.242  1.00  0.00     0.065 A 
HETATM   16  C   LIG     1      18.554  37.040  26.154  1.00  0.00     0.037 A 
HETATM   17  C   LIG     1      18.173  37.770  25.025  1.00  0.00     0.011 A 
BRANCH  15  18
HETATM   18  O   LIG     1      18.660  34.964  27.375  1.00  0.00    -0.361 OA
HETATM   19  H   LIG     1      18.587  35.364  28.302  1.00  0.00     0.217 HD
ENDBRANCH  15  18
ENDBRANCH   2  12
TORSDOF 4
ENDMDL
