REMARK  4 active torsions:
REMARK  status: ('A' for Active; 'I' for Inactive)
REMARK    1  A    between atoms: C_2  and  C_3 
REMARK    2  A    between atoms: C_2  and  C_11 
REMARK    3  A    between atoms: C_6  and  O_7 
REMARK    4  A    between atoms: C_14  and  O_15 
ROOT
HETATM    1  C   LIG     1       0.220  -2.151   1.470  1.00  0.00     0.025 C 
HETATM    2  C   LIG     1      -0.004  -0.632   1.262  1.00  0.00     0.007 C 
HETATM    3  C   LIG     1      -0.211  -0.010   2.666  1.00  0.00     0.025 C 
ENDROOT
BRANCH   2   4
HETATM    4  C   LIG     1       1.236  -0.081   0.531  1.00  0.00    -0.045 A 
HETATM    5  C   LIG     1       1.469  -0.465  -0.808  1.00  0.00     0.011 A 
HETATM    6  C   LIG     1       2.582   0.007  -1.509  1.00  0.00     0.037 A 
HETATM    7  C   LIG     1       3.489   0.867  -0.891  1.00  0.00     0.065 A 
HETATM    8  C   LIG     1       3.281   1.255   0.437  1.00  0.00     0.037 A 
HETATM    9  C   LIG     1       2.170   0.787   1.144  1.00  0.00     0.011 A 
BRANCH   7  10
HETATM   10  O   LIG     1       4.594   1.330  -1.602  1.00  0.00    -0.361 OA
HETATM   11  H   LIG     1       5.271   1.956  -1.181  1.00  0.00     0.217 HD
ENDBRANCH   7  10
ENDBRANCH   2   4
BRANCH   2  12
HETATM   12  C   LIG     1      -1.259  -0.311   0.429  1.00  0.00    -0.045 A 
HETATM   13  C   LIG     1      -1.510   1.027   0.054  1.00  0.00     0.011 A 
HETATM   14  C   LIG     1      -2.636   1.365  -0.699  1.00  0.00     0.037 A 
HETATM   15  C   LIG     1      -3.543   0.376  -1.091  1.00  0.00     0.065 A 
HETATM   16  C   LIG     1      -3.317  -0.952  -0.726  1.00  0.00     0.037 A 
HETATM   17  C   LIG     1      -2.191  -1.297   0.028  1.00  0.00     0.011 A 
BRANCH  15  18
HETATM   18  O   LIG     1      -4.670   0.701  -1.842  1.00  0.00    -0.361 OA
HETATM   19  H   LIG     1      -4.862   1.655  -2.123  1.00  0.00     0.217 HD
ENDBRANCH  15  18
ENDBRANCH   2  12
TORSDOF 4
