REMARK  2 active torsions:
REMARK  status: ('A' for Active; 'I' for Inactive)
REMARK    1  A    between atoms: C_2  and  C_4 
REMARK    2  A    between atoms: C_4  and  O_5 
ROOT
HETATM    1  C   LIG     1       0.435   0.396   0.575  1.00  0.00     0.287 C 
HETATM    2  O   LIG     1       0.991   1.281   1.284  1.00  0.00    -0.260 OA
ENDROOT
BRANCH   1   3
HETATM    3  C   LIG     1      -1.020   0.453   0.307  1.00  0.00     0.004 C 
HETATM    4  C   LIG     1      -1.787   1.394   0.872  1.00  0.00     0.024 C 
HETATM    5  C   LIG     1      -1.650  -0.607  -0.553  1.00  0.00     0.054 C 
ENDBRANCH   1   3
BRANCH   1   6
HETATM    6  O   LIG     1       1.193  -0.649   0.036  1.00  0.00    -0.323 OA
HETATM    7  C   LIG     1       2.594  -0.770   0.250  1.00  0.00     0.213 C 
ENDBRANCH   1   6
TORSDOF 2
