REMARK  4 active torsions:
REMARK  status: ('A' for Active; 'I' for Inactive)
REMARK    1  A    between atoms: C_2  and  CA_3 
REMARK    2  A    between atoms: CA_3  and  C_4 
REMARK    3  A    between atoms: CA_3  and  N_7 
REMARK    4  A    between atoms: C_4  and  O_5 
ROOT
HETATM    1  CA  LIG     1       0.426  -0.542  -0.115  1.00  0.00     0.314 C 
ENDROOT
BRANCH   1   2
HETATM    2  C   LIG     1      -1.100  -0.327  -0.167  1.00  0.00     0.042 C 
HETATM    3  C   LIG     1      -1.476   1.042  -0.735  1.00  0.00     0.007 C 
ENDBRANCH   1   2
BRANCH   1   4
HETATM    4  C   LIG     1       1.074   0.414   0.850  1.00  0.00     0.173 C 
HETATM    5  OXT LIG     1       0.783   0.375   2.076  1.00  0.00    -0.648 OA
BRANCH   4   6
HETATM    6  O   LIG     1       2.001   1.342   0.387  1.00  0.00    -0.775 OA
HETATM    7  H   LIG     1       2.447   1.992   1.022  1.00  0.00     0.167 HD
ENDBRANCH   4   6
ENDBRANCH   1   4
BRANCH   1   8
HETATM    8  N   LIG     1       0.723  -1.917   0.288  1.00  0.00     0.093 N 
HETATM    9  H1  LIG     1       1.760  -2.049   0.272  1.00  0.00     0.314 HD
HETATM   10  H2  LIG     1       0.341  -2.565  -0.439  1.00  0.00     0.314 HD
ENDBRANCH   1   8
TORSDOF 4
