MODEL 1
REMARK VINA RESULT:      -4.8      0.000      0.000
REMARK  2 active torsions:
REMARK  status: ('A' for Active; 'I' for Inactive)
REMARK    1  A    between atoms: C_2  and  C_4 
REMARK    2  A    between atoms: C_4  and  O_5 
ROOT
HETATM    1  C   LIG     1      17.156  37.345  24.891  1.00  0.00     0.287 C 
HETATM    2  O   LIG     1      16.847  38.462  25.392  1.00  0.00    -0.260 OA
ENDROOT
BRANCH   1   3
HETATM    3  C   LIG     1      17.775  36.292  25.728  1.00  0.00     0.004 C 
HETATM    4  C   LIG     1      18.681  36.602  26.664  1.00  0.00     0.024 C 
HETATM    5  C   LIG     1      17.434  34.852  25.467  1.00  0.00     0.054 C 
ENDBRANCH   1   3
BRANCH   1   6
HETATM    6  O   LIG     1      16.914  37.093  23.537  1.00  0.00    -0.323 OA
HETATM    7  C   LIG     1      15.841  37.696  22.824  1.00  0.00     0.213 C 
ENDBRANCH   1   6
TORSDOF 2
ENDMDL
MODEL 2
REMARK VINA RESULT:      -4.4      1.732      3.523
REMARK  2 active torsions:
REMARK  status: ('A' for Active; 'I' for Inactive)
REMARK    1  A    between atoms: C_2  and  C_4 
REMARK    2  A    between atoms: C_4  and  O_5 
ROOT
HETATM    1  C   LIG     1      16.514  38.162  23.572  1.00  0.00     0.287 C 
HETATM    2  O   LIG     1      15.271  37.945  23.517  1.00  0.00    -0.260 OA
ENDROOT
BRANCH   1   3
HETATM    3  C   LIG     1      17.349  38.057  22.354  1.00  0.00     0.004 C 
HETATM    4  C   LIG     1      18.130  39.074  21.965  1.00  0.00     0.024 C 
HETATM    5  C   LIG     1      17.260  36.819  21.506  1.00  0.00     0.054 C 
ENDBRANCH   1   3
BRANCH   1   6
HETATM    6  O   LIG     1      17.113  38.504  24.789  1.00  0.00    -0.323 OA
HETATM    7  C   LIG     1      17.593  37.530  25.708  1.00  0.00     0.213 C 
ENDBRANCH   1   6
TORSDOF 2
ENDMDL
MODEL 3
REMARK VINA RESULT:      -4.3      1.635      3.319
REMARK  2 active torsions:
REMARK  status: ('A' for Active; 'I' for Inactive)
REMARK    1  A    between atoms: C_2  and  C_4 
REMARK    2  A    between atoms: C_4  and  O_5 
ROOT
HETATM    1  C   LIG     1      16.940  36.991  24.288  1.00  0.00     0.287 C 
HETATM    2  O   LIG     1      16.367  38.068  24.616  1.00  0.00    -0.260 OA
ENDROOT
BRANCH   1   3
HETATM    3  C   LIG     1      17.008  36.578  22.868  1.00  0.00     0.004 C 
HETATM    4  C   LIG     1      16.862  35.293  22.518  1.00  0.00     0.024 C 
HETATM    5  C   LIG     1      17.318  37.608  21.818  1.00  0.00     0.054 C 
ENDBRANCH   1   3
BRANCH   1   6
HETATM    6  O   LIG     1      17.516  36.177  25.270  1.00  0.00    -0.323 OA
HETATM    7  C   LIG     1      18.352  36.691  26.299  1.00  0.00     0.213 C 
ENDBRANCH   1   6
TORSDOF 2
ENDMDL
MODEL 4
REMARK VINA RESULT:      -4.1      4.329      5.392
REMARK  2 active torsions:
REMARK  status: ('A' for Active; 'I' for Inactive)
REMARK    1  A    between atoms: C_2  and  C_4 
REMARK    2  A    between atoms: C_4  and  O_5 
ROOT
HETATM    1  C   LIG     1      18.323  36.939  20.104  1.00  0.00     0.287 C 
HETATM    2  O   LIG     1      18.566  36.578  18.918  1.00  0.00    -0.260 OA
ENDROOT
BRANCH   1   3
HETATM    3  C   LIG     1      18.709  38.290  20.571  1.00  0.00     0.004 C 
HETATM    4  C   LIG     1      19.738  38.942  20.015  1.00  0.00     0.024 C 
HETATM    5  C   LIG     1      17.979  38.900  21.735  1.00  0.00     0.054 C 
ENDBRANCH   1   3
BRANCH   1   6
HETATM    6  O   LIG     1      17.686  36.061  20.988  1.00  0.00    -0.323 OA
HETATM    7  C   LIG     1      16.412  35.489  20.716  1.00  0.00     0.213 C 
ENDBRANCH   1   6
TORSDOF 2
ENDMDL
MODEL 5
REMARK VINA RESULT:      -4.0      7.507      8.593
REMARK  2 active torsions:
REMARK  status: ('A' for Active; 'I' for Inactive)
REMARK    1  A    between atoms: C_2  and  C_4 
REMARK    2  A    between atoms: C_4  and  O_5 
ROOT
HETATM    1  C   LIG     1      14.823  32.313  18.058  1.00  0.00     0.287 C 
HETATM    2  O   LIG     1      15.665  32.833  17.273  1.00  0.00    -0.260 OA
ENDROOT
BRANCH   1   3
HETATM    3  C   LIG     1      15.085  32.265  19.515  1.00  0.00     0.004 C 
HETATM    4  C   LIG     1      15.549  33.339  20.166  1.00  0.00     0.024 C 
HETATM    5  C   LIG     1      14.896  30.969  20.252  1.00  0.00     0.054 C 
ENDBRANCH   1   3
BRANCH   1   6
HETATM    6  O   LIG     1      13.634  31.776  17.556  1.00  0.00    -0.323 OA
HETATM    7  C   LIG     1      13.606  30.856  16.471  1.00  0.00     0.213 C 
ENDBRANCH   1   6
TORSDOF 2
ENDMDL
MODEL 6
REMARK VINA RESULT:      -4.0      7.340      8.537
REMARK  2 active torsions:
REMARK  status: ('A' for Active; 'I' for Inactive)
REMARK    1  A    between atoms: C_2  and  C_4 
REMARK    2  A    between atoms: C_4  and  O_5 
ROOT
HETATM    1  C   LIG     1      14.789  32.231  18.079  1.00  0.00     0.287 C 
HETATM    2  O   LIG     1      13.721  31.730  17.628  1.00  0.00    -0.260 OA
ENDROOT
BRANCH   1   3
HETATM    3  C   LIG     1      15.093  32.173  19.527  1.00  0.00     0.004 C 
HETATM    4  C   LIG     1      14.894  31.049  20.227  1.00  0.00     0.024 C 
HETATM    5  C   LIG     1      15.560  33.418  20.229  1.00  0.00     0.054 C 
ENDBRANCH   1   3
BRANCH   1   6
HETATM    6  O   LIG     1      15.696  32.846  17.210  1.00  0.00    -0.323 OA
HETATM    7  C   LIG     1      15.663  32.650  15.802  1.00  0.00     0.213 C 
ENDBRANCH   1   6
TORSDOF 2
ENDMDL
MODEL 7
REMARK VINA RESULT:      -4.0      2.719      3.448
REMARK  2 active torsions:
REMARK  status: ('A' for Active; 'I' for Inactive)
REMARK    1  A    between atoms: C_2  and  C_4 
REMARK    2  A    between atoms: C_4  and  O_5 
ROOT
HETATM    1  C   LIG     1      16.433  37.528  22.972  1.00  0.00     0.287 C 
HETATM    2  O   LIG     1      15.600  37.974  23.811  1.00  0.00    -0.260 OA
ENDROOT
BRANCH   1   3
HETATM    3  C   LIG     1      16.156  36.275  22.233  1.00  0.00     0.004 C 
HETATM    4  C   LIG     1      15.028  36.128  21.526  1.00  0.00     0.024 C 
HETATM    5  C   LIG     1      17.125  35.130  22.341  1.00  0.00     0.054 C 
ENDBRANCH   1   3
BRANCH   1   6
HETATM    6  O   LIG     1      17.627  38.217  22.735  1.00  0.00    -0.323 OA
HETATM    7  C   LIG     1      17.987  38.708  21.449  1.00  0.00     0.213 C 
ENDBRANCH   1   6
TORSDOF 2
ENDMDL
MODEL 8
REMARK VINA RESULT:      -3.9      3.143      4.897
REMARK  2 active torsions:
REMARK  status: ('A' for Active; 'I' for Inactive)
REMARK    1  A    between atoms: C_2  and  C_4 
REMARK    2  A    between atoms: C_4  and  O_5 
ROOT
HETATM    1  C   LIG     1      17.594  37.289  21.335  1.00  0.00     0.287 C 
HETATM    2  O   LIG     1      17.342  36.052  21.385  1.00  0.00    -0.260 OA
ENDROOT
BRANCH   1   3
HETATM    3  C   LIG     1      18.617  37.810  20.401  1.00  0.00     0.004 C 
HETATM    4  C   LIG     1      19.179  37.014  19.482  1.00  0.00     0.024 C 
HETATM    5  C   LIG     1      19.081  39.233  20.539  1.00  0.00     0.054 C 
ENDBRANCH   1   3
BRANCH   1   6
HETATM    6  O   LIG     1      16.905  38.179  22.166  1.00  0.00    -0.323 OA
HETATM    7  C   LIG     1      16.110  37.745  23.263  1.00  0.00     0.213 C 
ENDBRANCH   1   6
TORSDOF 2
ENDMDL
MODEL 9
REMARK VINA RESULT:      -3.9      8.547     10.094
REMARK  2 active torsions:
REMARK  status: ('A' for Active; 'I' for Inactive)
REMARK    1  A    between atoms: C_2  and  C_4 
REMARK    2  A    between atoms: C_4  and  O_5 
ROOT
HETATM    1  C   LIG     1      14.643  32.028  17.534  1.00  0.00     0.287 C 
HETATM    2  O   LIG     1      15.363  33.064  17.580  1.00  0.00    -0.260 OA
ENDROOT
BRANCH   1   3
HETATM    3  C   LIG     1      14.305  31.404  16.235  1.00  0.00     0.004 C 
HETATM    4  C   LIG     1      15.139  31.496  15.191  1.00  0.00     0.024 C 
HETATM    5  C   LIG     1      12.975  30.723  16.070  1.00  0.00     0.054 C 
ENDBRANCH   1   3
BRANCH   1   6
HETATM    6  O   LIG     1      14.156  31.460  18.717  1.00  0.00    -0.323 OA
HETATM    7  C   LIG     1      14.894  31.467  19.932  1.00  0.00     0.213 C 
ENDBRANCH   1   6
TORSDOF 2
ENDMDL
MODEL 10
REMARK VINA RESULT:      -3.9      2.015      2.802
REMARK  2 active torsions:
REMARK  status: ('A' for Active; 'I' for Inactive)
REMARK    1  A    between atoms: C_2  and  C_4 
REMARK    2  A    between atoms: C_4  and  O_5 
ROOT
HETATM    1  C   LIG     1      16.917  38.248  22.841  1.00  0.00     0.287 C 
HETATM    2  O   LIG     1      15.968  39.082  22.847  1.00  0.00    -0.260 OA
ENDROOT
BRANCH   1   3
HETATM    3  C   LIG     1      17.131  37.347  23.995  1.00  0.00     0.004 C 
HETATM    4  C   LIG     1      17.095  36.016  23.845  1.00  0.00     0.024 C 
HETATM    5  C   LIG     1      17.318  37.939  25.364  1.00  0.00     0.054 C 
ENDBRANCH   1   3
BRANCH   1   6
HETATM    6  O   LIG     1      17.775  38.170  21.739  1.00  0.00    -0.323 OA
HETATM    7  C   LIG     1      18.567  39.269  21.304  1.00  0.00     0.213 C 
ENDBRANCH   1   6
TORSDOF 2
ENDMDL
MODEL 11
REMARK VINA RESULT:      -3.9     10.995     11.774
REMARK  2 active torsions:
REMARK  status: ('A' for Active; 'I' for Inactive)
REMARK    1  A    between atoms: C_2  and  C_4 
REMARK    2  A    between atoms: C_4  and  O_5 
ROOT
HETATM    1  C   LIG     1      15.952  32.172  14.907  1.00  0.00     0.287 C 
HETATM    2  O   LIG     1      16.494  32.494  16.001  1.00  0.00    -0.260 OA
ENDROOT
BRANCH   1   3
HETATM    3  C   LIG     1      15.051  30.999  14.832  1.00  0.00     0.004 C 
HETATM    4  C   LIG     1      15.150  30.119  13.828  1.00  0.00     0.024 C 
HETATM    5  C   LIG     1      13.965  30.841  15.859  1.00  0.00     0.054 C 
ENDBRANCH   1   3
BRANCH   1   6
HETATM    6  O   LIG     1      16.201  32.923  13.753  1.00  0.00    -0.323 OA
HETATM    7  C   LIG     1      17.507  33.338  13.375  1.00  0.00     0.213 C 
ENDBRANCH   1   6
TORSDOF 2
ENDMDL
MODEL 12
REMARK VINA RESULT:      -3.9      9.623     11.192
REMARK  2 active torsions:
REMARK  status: ('A' for Active; 'I' for Inactive)
REMARK    1  A    between atoms: C_2  and  C_4 
REMARK    2  A    between atoms: C_4  and  O_5 
ROOT
HETATM    1  C   LIG     1      15.604  32.249  15.262  1.00  0.00     0.287 C 
HETATM    2  O   LIG     1      16.098  32.829  14.255  1.00  0.00    -0.260 OA
ENDROOT
BRANCH   1   3
HETATM    3  C   LIG     1      14.843  30.989  15.106  1.00  0.00     0.004 C 
HETATM    4  C   LIG     1      15.205  30.075  14.197  1.00  0.00     0.024 C 
HETATM    5  C   LIG     1      13.605  30.773  15.931  1.00  0.00     0.054 C 
ENDBRANCH   1   3
BRANCH   1   6
HETATM    6  O   LIG     1      15.773  32.797  16.539  1.00  0.00    -0.323 OA
HETATM    7  C   LIG     1      15.127  33.995  16.951  1.00  0.00     0.213 C 
ENDBRANCH   1   6
TORSDOF 2
ENDMDL
MODEL 13
REMARK VINA RESULT:      -3.8     10.834     12.043
REMARK  2 active torsions:
REMARK  status: ('A' for Active; 'I' for Inactive)
REMARK    1  A    between atoms: C_2  and  C_4 
REMARK    2  A    between atoms: C_4  and  O_5 
ROOT
HETATM    1  C   LIG     1      15.782  31.721  14.204  1.00  0.00     0.287 C 
HETATM    2  O   LIG     1      16.394  31.450  13.133  1.00  0.00    -0.260 OA
ENDROOT
BRANCH   1   3
HETATM    3  C   LIG     1      14.817  30.758  14.782  1.00  0.00     0.004 C 
HETATM    4  C   LIG     1      14.137  31.051  15.898  1.00  0.00     0.024 C 
HETATM    5  C   LIG     1      14.657  29.406  14.143  1.00  0.00     0.054 C 
ENDBRANCH   1   3
BRANCH   1   6
HETATM    6  O   LIG     1      16.012  32.938  14.855  1.00  0.00    -0.323 OA
HETATM    7  C   LIG     1      17.289  33.564  14.881  1.00  0.00     0.213 C 
ENDBRANCH   1   6
TORSDOF 2
ENDMDL
MODEL 14
REMARK VINA RESULT:      -3.7      2.270      3.085
REMARK  2 active torsions:
REMARK  status: ('A' for Active; 'I' for Inactive)
REMARK    1  A    between atoms: C_2  and  C_4 
REMARK    2  A    between atoms: C_4  and  O_5 
ROOT
HETATM    1  C   LIG     1      16.866  36.467  23.138  1.00  0.00     0.287 C 
HETATM    2  O   LIG     1      17.171  35.433  23.797  1.00  0.00    -0.260 OA
ENDROOT
BRANCH   1   3
HETATM    3  C   LIG     1      17.108  37.814  23.702  1.00  0.00     0.004 C 
HETATM    4  C   LIG     1      17.296  37.986  25.017  1.00  0.00     0.024 C 
HETATM    5  C   LIG     1      17.067  39.009  22.791  1.00  0.00     0.054 C 
ENDBRANCH   1   3
BRANCH   1   6
HETATM    6  O   LIG     1      16.295  36.346  21.867  1.00  0.00    -0.323 OA
HETATM    7  C   LIG     1      17.015  35.843  20.748  1.00  0.00     0.213 C 
ENDBRANCH   1   6
TORSDOF 2
ENDMDL
MODEL 15
REMARK VINA RESULT:      -3.6      9.767     10.888
REMARK  2 active torsions:
REMARK  status: ('A' for Active; 'I' for Inactive)
REMARK    1  A    between atoms: C_2  and  C_4 
REMARK    2  A    between atoms: C_4  and  O_5 
ROOT
HETATM    1  C   LIG     1      16.998  33.450  15.106  1.00  0.00     0.287 C 
HETATM    2  O   LIG     1      16.941  34.657  15.471  1.00  0.00    -0.260 OA
ENDROOT
BRANCH   1   3
HETATM    3  C   LIG     1      15.899  32.513  15.432  1.00  0.00     0.004 C 
HETATM    4  C   LIG     1      15.186  32.655  16.556  1.00  0.00     0.024 C 
HETATM    5  C   LIG     1      15.635  31.346  14.522  1.00  0.00     0.054 C 
ENDBRANCH   1   3
BRANCH   1   6
HETATM    6  O   LIG     1      18.105  32.987  14.387  1.00  0.00    -0.323 OA
HETATM    7  C   LIG     1      18.657  33.698  13.286  1.00  0.00     0.213 C 
ENDBRANCH   1   6
TORSDOF 2
ENDMDL
MODEL 16
REMARK VINA RESULT:      -3.6      2.749      3.701
REMARK  2 active torsions:
REMARK  status: ('A' for Active; 'I' for Inactive)
REMARK    1  A    between atoms: C_2  and  C_4 
REMARK    2  A    between atoms: C_4  and  O_5 
ROOT
HETATM    1  C   LIG     1      17.164  36.745  21.555  1.00  0.00     0.287 C 
HETATM    2  O   LIG     1      18.033  36.979  20.669  1.00  0.00    -0.260 OA
ENDROOT
BRANCH   1   3
HETATM    3  C   LIG     1      17.006  37.657  22.711  1.00  0.00     0.004 C 
HETATM    4  C   LIG     1      16.858  38.975  22.532  1.00  0.00     0.024 C 
HETATM    5  C   LIG     1      17.088  37.097  24.104  1.00  0.00     0.054 C 
ENDBRANCH   1   3
BRANCH   1   6
HETATM    6  O   LIG     1      16.341  35.619  21.450  1.00  0.00    -0.323 OA
HETATM    7  C   LIG     1      14.927  35.711  21.322  1.00  0.00     0.213 C 
ENDBRANCH   1   6
TORSDOF 2
ENDMDL
MODEL 17
REMARK VINA RESULT:      -3.6      2.772      4.232
REMARK  2 active torsions:
REMARK  status: ('A' for Active; 'I' for Inactive)
REMARK    1  A    between atoms: C_2  and  C_4 
REMARK    2  A    between atoms: C_4  and  O_5 
ROOT
HETATM    1  C   LIG     1      16.897  35.848  22.610  1.00  0.00     0.287 C 
HETATM    2  O   LIG     1      17.172  34.779  23.223  1.00  0.00    -0.260 OA
ENDROOT
BRANCH   1   3
HETATM    3  C   LIG     1      16.891  35.885  21.129  1.00  0.00     0.004 C 
HETATM    4  C   LIG     1      15.946  35.245  20.430  1.00  0.00     0.024 C 
HETATM    5  C   LIG     1      18.006  36.590  20.408  1.00  0.00     0.054 C 
ENDBRANCH   1   3
BRANCH   1   6
HETATM    6  O   LIG     1      16.597  37.011  23.327  1.00  0.00    -0.323 OA
HETATM    7  C   LIG     1      15.765  38.041  22.806  1.00  0.00     0.213 C 
ENDBRANCH   1   6
TORSDOF 2
ENDMDL
MODEL 18
REMARK VINA RESULT:      -3.5     11.686     13.044
REMARK  2 active torsions:
REMARK  status: ('A' for Active; 'I' for Inactive)
REMARK    1  A    between atoms: C_2  and  C_4 
REMARK    2  A    between atoms: C_4  and  O_5 
ROOT
HETATM    1  C   LIG     1      19.236  33.964  12.665  1.00  0.00     0.287 C 
HETATM    2  O   LIG     1      18.457  34.765  12.076  1.00  0.00    -0.260 OA
ENDROOT
BRANCH   1   3
HETATM    3  C   LIG     1      20.635  33.804  12.208  1.00  0.00     0.004 C 
HETATM    4  C   LIG     1      21.625  34.518  12.759  1.00  0.00     0.024 C 
HETATM    5  C   LIG     1      20.931  32.881  11.059  1.00  0.00     0.054 C 
ENDBRANCH   1   3
BRANCH   1   6
HETATM    6  O   LIG     1      18.780  33.219  13.757  1.00  0.00    -0.323 OA
HETATM    7  C   LIG     1      17.565  33.515  14.435  1.00  0.00     0.213 C 
ENDBRANCH   1   6
TORSDOF 2
ENDMDL
MODEL 19
REMARK VINA RESULT:      -3.1     10.945     12.247
REMARK  2 active torsions:
REMARK  status: ('A' for Active; 'I' for Inactive)
REMARK    1  A    between atoms: C_2  and  C_4 
REMARK    2  A    between atoms: C_4  and  O_5 
ROOT
HETATM    1  C   LIG     1      17.669  33.578  13.297  1.00  0.00     0.287 C 
HETATM    2  O   LIG     1      18.830  33.145  13.054  1.00  0.00    -0.260 OA
ENDROOT
BRANCH   1   3
HETATM    3  C   LIG     1      16.685  32.732  14.010  1.00  0.00     0.004 C 
HETATM    4  C   LIG     1      15.944  31.833  13.349  1.00  0.00     0.024 C 
HETATM    5  C   LIG     1      16.468  32.941  15.483  1.00  0.00     0.054 C 
ENDBRANCH   1   3
BRANCH   1   6
HETATM    6  O   LIG     1      17.302  34.866  12.892  1.00  0.00    -0.323 OA
HETATM    7  C   LIG     1      17.461  35.324  11.555  1.00  0.00     0.213 C 
ENDBRANCH   1   6
TORSDOF 2
ENDMDL
