REMARK  8 active torsions:
REMARK  status: ('A' for Active; 'I' for Inactive)
REMARK    1  A    between atoms: O_1  and  C_2 
REMARK    2  A    between atoms: C_9  and  O_10 
REMARK    3  A    between atoms: C_13  and  C_14 
REMARK    4  A    between atoms: C_14  and  C_16 
REMARK    5  A    between atoms: C_16  and  C_17 
REMARK    6  A    between atoms: C_17  and  C_18 
REMARK    7  A    between atoms: C_18  and  O_19 
REMARK    8  A    between atoms: C_25  and  O_26 
ROOT
HETATM    1  C   LIG     1      -5.828   0.830  -0.131  1.00  0.00     0.118 C 
HETATM    2  C   LIG     1      -4.860   1.068  -1.328  1.00  0.00     0.032 C 
HETATM    3  C   LIG     1      -3.613   0.140  -1.393  1.00  0.00     0.012 C 
HETATM    4  C   LIG     1      -3.147  -0.434  -0.017  1.00  0.00    -0.036 C 
HETATM    5  C   LIG     1      -3.821  -1.825   0.195  1.00  0.00     0.016 C 
HETATM    6  C   LIG     1      -1.582  -0.666   0.078  1.00  0.00     0.003 C 
HETATM    7  C   LIG     1      -0.873  -1.136  -1.210  1.00  0.00     0.038 C 
HETATM    8  C   LIG     1       0.557  -1.687  -0.918  1.00  0.00     0.127 C 
HETATM    9  C   LIG     1       1.344  -0.872   0.214  1.00  0.00    -0.010 C 
HETATM   10  C   LIG     1       1.272  -1.719   1.534  1.00  0.00     0.018 C 
HETATM   11  C   LIG     1       2.879  -0.465   0.069  1.00  0.00     0.000 C 
HETATM   12  C   LIG     1       3.018   0.826   0.934  1.00  0.00     0.006 C 
HETATM   13  C   LIG     1       1.615   1.297   1.323  1.00  0.00     0.006 C 
HETATM   14  C   LIG     1       0.689   0.513   0.410  1.00  0.00     0.003 C 
HETATM   15  C   LIG     1      -0.845   0.545   0.708  1.00  0.00     0.024 C 
HETATM   16  C   LIG     1      -1.278   0.709   2.198  1.00  0.00     0.123 C 
HETATM   17  C   LIG     1      -2.800   0.406   2.402  1.00  0.00     0.037 C 
HETATM   18  C   LIG     1      -3.584   0.595   1.086  1.00  0.00    -0.001 C 
HETATM   19  C   LIG     1      -5.111   0.649   1.240  1.00  0.00     0.037 C 
ENDROOT
BRANCH  11  20
HETATM   20  C   LIG     1       3.550  -0.316  -1.349  1.00  0.00    -0.013 C 
HETATM   21  C   LIG     1       2.966   0.801  -2.240  1.00  0.00     0.010 C 
BRANCH  20  22
HETATM   22  C   LIG     1       5.108  -0.286  -1.321  1.00  0.00     0.015 C 
BRANCH  22  23
HETATM   23  C   LIG     1       5.767   0.995  -0.780  1.00  0.00     0.110 C 
BRANCH  23  24
HETATM   24  C   LIG     1       7.227   1.034  -1.134  1.00  0.00     0.139 C 
HETATM   25  O   LIG     1       7.575   1.172  -2.335  1.00  0.00    -0.650 OA
BRANCH  24  26
HETATM   26  O   LIG     1       8.205   0.942  -0.147  1.00  0.00    -0.776 OA
HETATM   27  H   LIG     1       7.962   0.823   0.828  1.00  0.00     0.167 HD
ENDBRANCH  24  26
ENDBRANCH  23  24
ENDBRANCH  22  23
ENDBRANCH  20  22
ENDBRANCH  11  20
BRANCH   8  28
HETATM   28  O   LIG     1       1.241  -1.757  -2.135  1.00  0.00    -0.395 OA
HETATM   29  H   LIG     1       0.816  -2.468  -2.684  1.00  0.00     0.210 HD
ENDBRANCH   8  28
BRANCH  16  30
HETATM   30  O   LIG     1      -1.009   2.026   2.607  1.00  0.00    -0.395 OA
HETATM   31  H   LIG     1      -0.973   2.020   3.598  1.00  0.00     0.210 HD
ENDBRANCH  16  30
BRANCH   1  32
HETATM   32  O   LIG     1      -6.671  -0.267  -0.379  1.00  0.00    -0.396 OA
HETATM   33  H   LIG     1      -7.200  -0.056  -1.194  1.00  0.00     0.210 HD
ENDBRANCH   1  32
TORSDOF 8
