MODEL 1
REMARK VINA RESULT:      -5.0      0.000      0.000
REMARK  8 active torsions:
REMARK  status: ('A' for Active; 'I' for Inactive)
REMARK    1  A    between atoms: O_1  and  C_2 
REMARK    2  A    between atoms: C_9  and  O_10 
REMARK    3  A    between atoms: C_13  and  C_14 
REMARK    4  A    between atoms: C_14  and  C_16 
REMARK    5  A    between atoms: C_16  and  C_17 
REMARK    6  A    between atoms: C_17  and  C_18 
REMARK    7  A    between atoms: C_18  and  O_19 
REMARK    8  A    between atoms: C_25  and  O_26 
ROOT
HETATM    1  C   LIG     1      29.749  24.250  26.467  1.00  0.00     0.118 C 
HETATM    2  C   LIG     1      29.895  22.965  25.599  1.00  0.00     0.032 C 
HETATM    3  C   LIG     1      29.041  22.918  24.300  1.00  0.00     0.012 C 
HETATM    4  C   LIG     1      27.741  23.784  24.334  1.00  0.00    -0.036 C 
HETATM    5  C   LIG     1      28.064  25.188  23.735  1.00  0.00     0.016 C 
HETATM    6  C   LIG     1      26.554  23.183  23.474  1.00  0.00     0.003 C 
HETATM    7  C   LIG     1      26.943  22.465  22.164  1.00  0.00     0.038 C 
HETATM    8  C   LIG     1      25.712  22.253  21.229  1.00  0.00     0.127 C 
HETATM    9  C   LIG     1      24.364  21.882  22.012  1.00  0.00    -0.010 C 
HETATM   10  C   LIG     1      23.486  23.182  22.072  1.00  0.00     0.018 C 
HETATM   11  C   LIG     1      23.371  20.737  21.516  1.00  0.00     0.000 C 
HETATM   12  C   LIG     1      22.678  20.238  22.822  1.00  0.00     0.006 C 
HETATM   13  C   LIG     1      23.413  20.845  24.019  1.00  0.00     0.006 C 
HETATM   14  C   LIG     1      24.707  21.381  23.432  1.00  0.00     0.003 C 
HETATM   15  C   LIG     1      25.596  22.307  24.324  1.00  0.00     0.024 C 
HETATM   16  C   LIG     1      24.866  23.195  25.379  1.00  0.00     0.123 C 
HETATM   17  C   LIG     1      25.810  24.293  25.973  1.00  0.00     0.037 C 
HETATM   18  C   LIG     1      27.291  23.884  25.835  1.00  0.00    -0.001 C 
HETATM   19  C   LIG     1      28.276  24.716  26.670  1.00  0.00     0.037 C 
ENDROOT
BRANCH  11  20
HETATM   20  C   LIG     1      23.883  19.551  20.614  1.00  0.00    -0.013 C 
HETATM   21  C   LIG     1      24.378  18.306  21.381  1.00  0.00     0.010 C 
BRANCH  20  22
HETATM   22  C   LIG     1      22.923  19.174  19.446  1.00  0.00     0.015 C 
BRANCH  22  23
HETATM   23  C   LIG     1      23.291  19.702  18.048  1.00  0.00     0.110 C 
BRANCH  23  24
HETATM   24  C   LIG     1      23.500  21.190  18.079  1.00  0.00     0.139 C 
HETATM   25  O   LIG     1      24.649  21.663  17.879  1.00  0.00    -0.650 OA
BRANCH  24  26
HETATM   26  O   LIG     1      22.434  22.058  18.302  1.00  0.00    -0.776 OA
HETATM   27  H   LIG     1      21.722  22.211  17.600  1.00  0.00     0.167 HD
ENDBRANCH  24  26
ENDBRANCH  23  24
ENDBRANCH  22  23
ENDBRANCH  20  22
ENDBRANCH  11  20
BRANCH   8  28
HETATM   28  O   LIG     1      26.072  21.314  20.259  1.00  0.00    -0.395 OA
HETATM   29  H   LIG     1      26.920  20.885  20.549  1.00  0.00     0.210 HD
ENDBRANCH   8  28
BRANCH  16  30
HETATM   30  O   LIG     1      24.399  22.373  26.418  1.00  0.00    -0.395 OA
HETATM   31  H   LIG     1      24.992  21.579  26.450  1.00  0.00     0.210 HD
ENDBRANCH  16  30
BRANCH   1  32
HETATM   32  O   LIG     1      30.516  25.302  25.938  1.00  0.00    -0.396 OA
HETATM   33  H   LIG     1      31.131  24.909  25.262  1.00  0.00     0.210 HD
ENDBRANCH   1  32
TORSDOF 8
ENDMDL
MODEL 2
REMARK VINA RESULT:      -4.5      2.411      4.629
REMARK  8 active torsions:
REMARK  status: ('A' for Active; 'I' for Inactive)
REMARK    1  A    between atoms: O_1  and  C_2 
REMARK    2  A    between atoms: C_9  and  O_10 
REMARK    3  A    between atoms: C_13  and  C_14 
REMARK    4  A    between atoms: C_14  and  C_16 
REMARK    5  A    between atoms: C_16  and  C_17 
REMARK    6  A    between atoms: C_17  and  C_18 
REMARK    7  A    between atoms: C_18  and  O_19 
REMARK    8  A    between atoms: C_25  and  O_26 
ROOT
HETATM    1  C   LIG     1      27.773  25.369  29.052  1.00  0.00     0.118 C 
HETATM    2  C   LIG     1      26.571  25.644  28.100  1.00  0.00     0.032 C 
HETATM    3  C   LIG     1      26.448  24.705  26.866  1.00  0.00     0.012 C 
HETATM    4  C   LIG     1      27.792  24.069  26.386  1.00  0.00    -0.036 C 
HETATM    5  C   LIG     1      27.958  22.679  27.074  1.00  0.00     0.016 C 
HETATM    6  C   LIG     1      27.852  23.814  24.823  1.00  0.00     0.003 C 
HETATM    7  C   LIG     1      26.535  23.389  24.140  1.00  0.00     0.038 C 
HETATM    8  C   LIG     1      26.781  22.809  22.713  1.00  0.00     0.127 C 
HETATM    9  C   LIG     1      27.933  23.567  21.898  1.00  0.00    -0.010 C 
HETATM   10  C   LIG     1      29.218  22.668  21.960  1.00  0.00     0.018 C 
HETATM   11  C   LIG     1      27.780  23.961  20.360  1.00  0.00     0.000 C 
HETATM   12  C   LIG     1      28.694  25.214  20.191  1.00  0.00     0.006 C 
HETATM   13  C   LIG     1      29.125  25.686  21.582  1.00  0.00     0.006 C 
HETATM   14  C   LIG     1      28.196  24.951  22.532  1.00  0.00     0.003 C 
HETATM   15  C   LIG     1      28.519  24.989  24.060  1.00  0.00     0.024 C 
HETATM   16  C   LIG     1      30.021  25.098  24.468  1.00  0.00     0.123 C 
HETATM   17  C   LIG     1      30.237  24.805  25.991  1.00  0.00     0.037 C 
HETATM   18  C   LIG     1      28.943  25.057  26.792  1.00  0.00    -0.001 C 
HETATM   19  C   LIG     1      29.123  25.124  28.316  1.00  0.00     0.037 C 
ENDROOT
BRANCH  11  20
HETATM   20  C   LIG     1      26.359  24.160  19.709  1.00  0.00    -0.013 C 
HETATM   21  C   LIG     1      25.972  25.623  19.406  1.00  0.00     0.010 C 
BRANCH  20  22
HETATM   22  C   LIG     1      26.068  23.217  18.503  1.00  0.00     0.015 C 
BRANCH  22  23
HETATM   23  C   LIG     1      25.429  21.855  18.825  1.00  0.00     0.110 C 
BRANCH  23  24
HETATM   24  C   LIG     1      23.944  21.994  19.012  1.00  0.00     0.139 C 
HETATM   25  O   LIG     1      23.172  21.817  18.035  1.00  0.00    -0.650 OA
BRANCH  24  26
HETATM   26  O   LIG     1      23.405  22.295  20.261  1.00  0.00    -0.776 OA
HETATM   27  H   LIG     1      23.978  22.669  21.007  1.00  0.00     0.167 HD
ENDBRANCH  24  26
ENDBRANCH  23  24
ENDBRANCH  22  23
ENDBRANCH  20  22
ENDBRANCH  11  20
BRANCH   8  28
HETATM   28  O   LIG     1      25.552  22.781  22.049  1.00  0.00    -0.395 OA
HETATM   29  H   LIG     1      24.969  22.123  22.513  1.00  0.00     0.210 HD
ENDBRANCH   8  28
BRANCH  16  30
HETATM   30  O   LIG     1      30.479  26.393  24.176  1.00  0.00    -0.395 OA
HETATM   31  H   LIG     1      31.463  26.387  24.299  1.00  0.00     0.210 HD
ENDBRANCH  16  30
BRANCH   1  32
HETATM   32  O   LIG     1      27.494  24.294  29.913  1.00  0.00    -0.396 OA
HETATM   33  H   LIG     1      28.062  24.406  30.721  1.00  0.00     0.210 HD
ENDBRANCH   1  32
TORSDOF 8
ENDMDL
MODEL 3
REMARK VINA RESULT:      -4.5      3.950      6.270
REMARK  8 active torsions:
REMARK  status: ('A' for Active; 'I' for Inactive)
REMARK    1  A    between atoms: O_1  and  C_2 
REMARK    2  A    between atoms: C_9  and  O_10 
REMARK    3  A    between atoms: C_13  and  C_14 
REMARK    4  A    between atoms: C_14  and  C_16 
REMARK    5  A    between atoms: C_16  and  C_17 
REMARK    6  A    between atoms: C_17  and  C_18 
REMARK    7  A    between atoms: C_18  and  O_19 
REMARK    8  A    between atoms: C_25  and  O_26 
ROOT
HETATM    1  C   LIG     1      30.027  27.693  17.803  1.00  0.00     0.118 C 
HETATM    2  C   LIG     1      28.487  27.681  18.034  1.00  0.00     0.032 C 
HETATM    3  C   LIG     1      27.956  26.625  19.045  1.00  0.00     0.012 C 
HETATM    4  C   LIG     1      28.854  25.358  19.207  1.00  0.00    -0.036 C 
HETATM    5  C   LIG     1      29.834  25.593  20.399  1.00  0.00     0.016 C 
HETATM    6  C   LIG     1      28.040  24.039  19.539  1.00  0.00     0.003 C 
HETATM    7  C   LIG     1      26.801  24.201  20.445  1.00  0.00     0.038 C 
HETATM    8  C   LIG     1      26.309  22.831  21.006  1.00  0.00     0.127 C 
HETATM    9  C   LIG     1      26.420  21.626  19.957  1.00  0.00    -0.010 C 
HETATM   10  C   LIG     1      27.686  20.784  20.346  1.00  0.00     0.018 C 
HETATM   11  C   LIG     1      25.258  20.553  19.754  1.00  0.00     0.000 C 
HETATM   12  C   LIG     1      25.426  20.078  18.278  1.00  0.00     0.006 C 
HETATM   13  C   LIG     1      26.426  21.006  17.585  1.00  0.00     0.006 C 
HETATM   14  C   LIG     1      26.551  22.192  18.525  1.00  0.00     0.003 C 
HETATM   15  C   LIG     1      27.695  23.225  18.265  1.00  0.00     0.024 C 
HETATM   16  C   LIG     1      29.006  22.687  17.612  1.00  0.00     0.123 C 
HETATM   17  C   LIG     1      30.173  23.726  17.699  1.00  0.00     0.037 C 
HETATM   18  C   LIG     1      29.626  25.161  17.854  1.00  0.00    -0.001 C 
HETATM   19  C   LIG     1      30.653  26.278  17.617  1.00  0.00     0.037 C 
ENDROOT
BRANCH  11  20
HETATM   20  C   LIG     1      23.762  20.898  20.110  1.00  0.00    -0.013 C 
HETATM   21  C   LIG     1      22.807  21.010  18.903  1.00  0.00     0.010 C 
BRANCH  20  22
HETATM   22  C   LIG     1      23.158  20.028  21.254  1.00  0.00     0.015 C 
BRANCH  22  23
HETATM   23  C   LIG     1      22.575  20.781  22.463  1.00  0.00     0.110 C 
BRANCH  23  24
HETATM   24  C   LIG     1      23.463  20.626  23.666  1.00  0.00     0.139 C 
HETATM   25  O   LIG     1      24.623  21.112  23.652  1.00  0.00    -0.650 OA
BRANCH  24  26
HETATM   26  O   LIG     1      23.012  19.970  24.808  1.00  0.00    -0.776 OA
HETATM   27  H   LIG     1      23.526  19.197  25.211  1.00  0.00     0.167 HD
ENDBRANCH  24  26
ENDBRANCH  23  24
ENDBRANCH  22  23
ENDBRANCH  20  22
ENDBRANCH  11  20
BRANCH   8  28
HETATM   28  O   LIG     1      25.018  23.018  21.509  1.00  0.00    -0.395 OA
HETATM   29  H   LIG     1      24.412  22.385  21.039  1.00  0.00     0.210 HD
ENDBRANCH   8  28
BRANCH  16  30
HETATM   30  O   LIG     1      28.752  22.387  16.263  1.00  0.00    -0.395 OA
HETATM   31  H   LIG     1      28.947  21.423  16.138  1.00  0.00     0.210 HD
ENDBRANCH  16  30
BRANCH   1  32
HETATM   32  O   LIG     1      30.684  28.374  18.843  1.00  0.00    -0.396 OA
HETATM   33  H   LIG     1      31.659  28.212  18.734  1.00  0.00     0.210 HD
ENDBRANCH   1  32
TORSDOF 8
ENDMDL
MODEL 4
REMARK VINA RESULT:      -4.4      2.354      8.092
REMARK  8 active torsions:
REMARK  status: ('A' for Active; 'I' for Inactive)
REMARK    1  A    between atoms: O_1  and  C_2 
REMARK    2  A    between atoms: C_9  and  O_10 
REMARK    3  A    between atoms: C_13  and  C_14 
REMARK    4  A    between atoms: C_14  and  C_16 
REMARK    5  A    between atoms: C_16  and  C_17 
REMARK    6  A    between atoms: C_17  and  C_18 
REMARK    7  A    between atoms: C_18  and  O_19 
REMARK    8  A    between atoms: C_25  and  O_26 
ROOT
HETATM    1  C   LIG     1      23.657  20.841  19.632  1.00  0.00     0.118 C 
HETATM    2  C   LIG     1      23.561  20.157  21.028  1.00  0.00     0.032 C 
HETATM    3  C   LIG     1      23.716  21.094  22.260  1.00  0.00     0.012 C 
HETATM    4  C   LIG     1      24.544  22.393  21.999  1.00  0.00    -0.036 C 
HETATM    5  C   LIG     1      23.560  23.538  21.607  1.00  0.00     0.016 C 
HETATM    6  C   LIG     1      25.350  22.898  23.267  1.00  0.00     0.003 C 
HETATM    7  C   LIG     1      24.673  22.703  24.640  1.00  0.00     0.038 C 
HETATM    8  C   LIG     1      25.360  23.555  25.752  1.00  0.00     0.127 C 
HETATM    9  C   LIG     1      26.953  23.634  25.614  1.00  0.00    -0.010 C 
HETATM   10  C   LIG     1      27.300  25.036  24.999  1.00  0.00     0.018 C 
HETATM   11  C   LIG     1      27.932  23.478  26.864  1.00  0.00     0.000 C 
HETATM   12  C   LIG     1      29.250  22.911  26.251  1.00  0.00     0.006 C 
HETATM   13  C   LIG     1      28.970  22.499  24.804  1.00  0.00     0.006 C 
HETATM   14  C   LIG     1      27.455  22.492  24.703  1.00  0.00     0.003 C 
HETATM   15  C   LIG     1      26.808  22.369  23.285  1.00  0.00     0.024 C 
HETATM   16  C   LIG     1      27.604  22.972  22.086  1.00  0.00     0.123 C 
HETATM   17  C   LIG     1      26.725  23.076  20.794  1.00  0.00     0.037 C 
HETATM   18  C   LIG     1      25.553  22.073  20.839  1.00  0.00    -0.001 C 
HETATM   19  C   LIG     1      24.831  21.856  19.501  1.00  0.00     0.037 C 
ENDROOT
BRANCH  11  20
HETATM   20  C   LIG     1      27.483  22.697  28.156  1.00  0.00    -0.013 C 
HETATM   21  C   LIG     1      28.320  21.445  28.494  1.00  0.00     0.010 C 
BRANCH  20  22
HETATM   22  C   LIG     1      27.255  23.601  29.405  1.00  0.00     0.015 C 
BRANCH  22  23
HETATM   23  C   LIG     1      26.852  25.062  29.139  1.00  0.00     0.110 C 
BRANCH  23  24
HETATM   24  C   LIG     1      27.208  25.936  30.309  1.00  0.00     0.139 C 
HETATM   25  O   LIG     1      27.866  25.457  31.268  1.00  0.00    -0.650 OA
BRANCH  24  26
HETATM   26  O   LIG     1      26.839  27.278  30.338  1.00  0.00    -0.776 OA
HETATM   27  H   LIG     1      27.525  28.017  30.257  1.00  0.00     0.167 HD
ENDBRANCH  24  26
ENDBRANCH  23  24
ENDBRANCH  22  23
ENDBRANCH  20  22
ENDBRANCH  11  20
BRANCH   8  28
HETATM   28  O   LIG     1      24.928  23.066  26.988  1.00  0.00    -0.395 OA
HETATM   29  H   LIG     1      24.020  23.431  27.161  1.00  0.00     0.210 HD
ENDBRANCH   8  28
BRANCH  16  30
HETATM   30  O   LIG     1      28.718  22.157  21.824  1.00  0.00    -0.395 OA
HETATM   31  H   LIG     1      28.508  21.256  22.179  1.00  0.00     0.210 HD
ENDBRANCH  16  30
BRANCH   1  32
HETATM   32  O   LIG     1      22.443  21.466  19.296  1.00  0.00    -0.396 OA
HETATM   33  H   LIG     1      22.283  21.301  18.329  1.00  0.00     0.210 HD
ENDBRANCH   1  32
TORSDOF 8
ENDMDL
MODEL 5
REMARK VINA RESULT:      -4.4      2.113      8.045
REMARK  8 active torsions:
REMARK  status: ('A' for Active; 'I' for Inactive)
REMARK    1  A    between atoms: O_1  and  C_2 
REMARK    2  A    between atoms: C_9  and  O_10 
REMARK    3  A    between atoms: C_13  and  C_14 
REMARK    4  A    between atoms: C_14  and  C_16 
REMARK    5  A    between atoms: C_16  and  C_17 
REMARK    6  A    between atoms: C_17  and  C_18 
REMARK    7  A    between atoms: C_18  and  O_19 
REMARK    8  A    between atoms: C_25  and  O_26 
ROOT
HETATM    1  C   LIG     1      22.551  18.219  17.368  1.00  0.00     0.118 C 
HETATM    2  C   LIG     1      22.621  18.091  18.918  1.00  0.00     0.032 C 
HETATM    3  C   LIG     1      22.941  19.398  19.698  1.00  0.00     0.012 C 
HETATM    4  C   LIG     1      23.746  20.466  18.891  1.00  0.00    -0.036 C 
HETATM    5  C   LIG     1      22.735  21.447  18.220  1.00  0.00     0.016 C 
HETATM    6  C   LIG     1      24.711  21.347  19.788  1.00  0.00     0.003 C 
HETATM    7  C   LIG     1      24.209  21.699  21.205  1.00  0.00     0.038 C 
HETATM    8  C   LIG     1      25.039  22.854  21.845  1.00  0.00     0.127 C 
HETATM    9  C   LIG     1      26.604  22.786  21.511  1.00  0.00    -0.010 C 
HETATM   10  C   LIG     1      26.888  23.851  20.393  1.00  0.00     0.018 C 
HETATM   11  C   LIG     1      27.729  23.036  22.613  1.00  0.00     0.000 C 
HETATM   12  C   LIG     1      28.953  22.212  22.106  1.00  0.00     0.006 C 
HETATM   13  C   LIG     1      28.489  21.323  20.950  1.00  0.00     0.006 C 
HETATM   14  C   LIG     1      26.973  21.366  21.029  1.00  0.00     0.003 C 
HETATM   15  C   LIG     1      26.153  20.778  19.835  1.00  0.00     0.024 C 
HETATM   16  C   LIG     1      26.800  20.862  18.417  1.00  0.00     0.123 C 
HETATM   17  C   LIG     1      25.768  20.544  17.284  1.00  0.00     0.037 C 
HETATM   18  C   LIG     1      24.598  19.693  17.822  1.00  0.00    -0.001 C 
HETATM   19  C   LIG     1      23.712  19.050  16.745  1.00  0.00     0.037 C 
ENDROOT
BRANCH  11  20
HETATM   20  C   LIG     1      27.435  22.800  24.143  1.00  0.00    -0.013 C 
HETATM   21  C   LIG     1      27.786  21.393  24.672  1.00  0.00     0.010 C 
BRANCH  20  22
HETATM   22  C   LIG     1      27.969  23.926  25.080  1.00  0.00     0.015 C 
BRANCH  22  23
HETATM   23  C   LIG     1      26.920  24.864  25.703  1.00  0.00     0.110 C 
BRANCH  23  24
HETATM   24  C   LIG     1      25.940  24.089  26.537  1.00  0.00     0.139 C 
HETATM   25  O   LIG     1      26.239  23.768  27.716  1.00  0.00    -0.650 OA
BRANCH  24  26
HETATM   26  O   LIG     1      24.691  23.738  26.031  1.00  0.00    -0.776 OA
HETATM   27  H   LIG     1      24.372  24.073  25.131  1.00  0.00     0.167 HD
ENDBRANCH  24  26
ENDBRANCH  23  24
ENDBRANCH  22  23
ENDBRANCH  20  22
ENDBRANCH  11  20
BRANCH   8  28
HETATM   28  O   LIG     1      24.759  22.868  23.215  1.00  0.00    -0.395 OA
HETATM   29  H   LIG     1      24.774  23.814  23.520  1.00  0.00     0.210 HD
ENDBRANCH   8  28
BRANCH  16  30
HETATM   30  O   LIG     1      27.862  19.946  18.347  1.00  0.00    -0.395 OA
HETATM   31  H   LIG     1      28.129  19.884  17.394  1.00  0.00     0.210 HD
ENDBRANCH  16  30
BRANCH   1  32
HETATM   32  O   LIG     1      21.313  18.749  16.965  1.00  0.00    -0.396 OA
HETATM   33  H   LIG     1      20.827  18.031  16.480  1.00  0.00     0.210 HD
ENDBRANCH   1  32
TORSDOF 8
ENDMDL
MODEL 6
REMARK VINA RESULT:      -4.4      2.015      2.691
REMARK  8 active torsions:
REMARK  status: ('A' for Active; 'I' for Inactive)
REMARK    1  A    between atoms: O_1  and  C_2 
REMARK    2  A    between atoms: C_9  and  O_10 
REMARK    3  A    between atoms: C_13  and  C_14 
REMARK    4  A    between atoms: C_14  and  C_16 
REMARK    5  A    between atoms: C_16  and  C_17 
REMARK    6  A    between atoms: C_17  and  C_18 
REMARK    7  A    between atoms: C_18  and  O_19 
REMARK    8  A    between atoms: C_25  and  O_26 
ROOT
HETATM    1  C   LIG     1      26.991  22.290  28.306  1.00  0.00     0.118 C 
HETATM    2  C   LIG     1      27.840  21.828  27.084  1.00  0.00     0.032 C 
HETATM    3  C   LIG     1      27.370  22.341  25.693  1.00  0.00     0.012 C 
HETATM    4  C   LIG     1      25.850  22.685  25.597  1.00  0.00    -0.036 C 
HETATM    5  C   LIG     1      25.663  24.202  25.905  1.00  0.00     0.016 C 
HETATM    6  C   LIG     1      25.230  22.431  24.160  1.00  0.00     0.003 C 
HETATM    7  C   LIG     1      26.144  22.726  22.951  1.00  0.00     0.038 C 
HETATM    8  C   LIG     1      25.336  22.808  21.619  1.00  0.00     0.127 C 
HETATM    9  C   LIG     1      24.144  21.743  21.520  1.00  0.00    -0.010 C 
HETATM   10  C   LIG     1      22.807  22.511  21.816  1.00  0.00     0.018 C 
HETATM   11  C   LIG     1      23.852  20.901  20.198  1.00  0.00     0.000 C 
HETATM   12  C   LIG     1      23.185  19.589  20.716  1.00  0.00     0.006 C 
HETATM   13  C   LIG     1      23.334  19.544  22.239  1.00  0.00     0.006 C 
HETATM   14  C   LIG     1      24.369  20.611  22.546  1.00  0.00     0.003 C 
HETATM   15  C   LIG     1      24.582  21.027  24.038  1.00  0.00     0.024 C 
HETATM   16  C   LIG     1      23.347  20.932  24.987  1.00  0.00     0.123 C 
HETATM   17  C   LIG     1      23.595  21.669  26.346  1.00  0.00     0.037 C 
HETATM   18  C   LIG     1      25.104  21.785  26.646  1.00  0.00    -0.001 C 
HETATM   19  C   LIG     1      25.452  22.184  28.087  1.00  0.00     0.037 C 
ENDROOT
BRANCH  11  20
HETATM   20  C   LIG     1      24.989  20.623  19.143  1.00  0.00    -0.013 C 
HETATM   21  C   LIG     1      25.834  19.358  19.404  1.00  0.00     0.010 C 
BRANCH  20  22
HETATM   22  C   LIG     1      24.524  20.719  17.659  1.00  0.00     0.015 C 
BRANCH  22  23
HETATM   23  C   LIG     1      24.397  19.394  16.885  1.00  0.00     0.110 C 
BRANCH  23  24
HETATM   24  C   LIG     1      22.954  19.060  16.635  1.00  0.00     0.139 C 
HETATM   25  O   LIG     1      22.060  19.564  17.363  1.00  0.00    -0.650 OA
BRANCH  24  26
HETATM   26  O   LIG     1      22.586  18.214  15.592  1.00  0.00    -0.776 OA
HETATM   27  H   LIG     1      21.874  17.505  15.713  1.00  0.00     0.167 HD
ENDBRANCH  24  26
ENDBRANCH  23  24
ENDBRANCH  22  23
ENDBRANCH  20  22
ENDBRANCH  11  20
BRANCH   8  28
HETATM   28  O   LIG     1      26.249  22.725  20.564  1.00  0.00    -0.395 OA
HETATM   29  H   LIG     1      25.845  23.174  19.774  1.00  0.00     0.210 HD
ENDBRANCH   8  28
BRANCH  16  30
HETATM   30  O   LIG     1      23.070  19.578  25.238  1.00  0.00    -0.395 OA
HETATM   31  H   LIG     1      23.372  19.068  24.443  1.00  0.00     0.210 HD
ENDBRANCH  16  30
BRANCH   1  32
HETATM   32  O   LIG     1      27.332  23.600  28.686  1.00  0.00    -0.396 OA
HETATM   33  H   LIG     1      26.845  23.800  29.530  1.00  0.00     0.210 HD
ENDBRANCH   1  32
TORSDOF 8
ENDMDL
MODEL 7
REMARK VINA RESULT:      -4.4      8.555     12.457
REMARK  8 active torsions:
REMARK  status: ('A' for Active; 'I' for Inactive)
REMARK    1  A    between atoms: O_1  and  C_2 
REMARK    2  A    between atoms: C_9  and  O_10 
REMARK    3  A    between atoms: C_13  and  C_14 
REMARK    4  A    between atoms: C_14  and  C_16 
REMARK    5  A    between atoms: C_16  and  C_17 
REMARK    6  A    between atoms: C_17  and  C_18 
REMARK    7  A    between atoms: C_18  and  O_19 
REMARK    8  A    between atoms: C_25  and  O_26 
ROOT
HETATM    1  C   LIG     1      28.526  31.614  37.872  1.00  0.00     0.118 C 
HETATM    2  C   LIG     1      29.487  31.509  36.650  1.00  0.00     0.032 C 
HETATM    3  C   LIG     1      28.883  30.889  35.357  1.00  0.00     0.012 C 
HETATM    4  C   LIG     1      27.687  29.912  35.592  1.00  0.00    -0.036 C 
HETATM    5  C   LIG     1      26.357  30.720  35.489  1.00  0.00     0.016 C 
HETATM    6  C   LIG     1      27.598  28.747  34.521  1.00  0.00     0.003 C 
HETATM    7  C   LIG     1      28.001  29.106  33.075  1.00  0.00     0.038 C 
HETATM    8  C   LIG     1      27.526  28.026  32.054  1.00  0.00     0.127 C 
HETATM    9  C   LIG     1      27.642  26.525  32.602  1.00  0.00    -0.010 C 
HETATM   10  C   LIG     1      26.200  26.069  33.023  1.00  0.00     0.018 C 
HETATM   11  C   LIG     1      28.210  25.328  31.714  1.00  0.00     0.000 C 
HETATM   12  C   LIG     1      28.803  24.327  32.753  1.00  0.00     0.006 C 
HETATM   13  C   LIG     1      28.835  25.015  34.120  1.00  0.00     0.006 C 
HETATM   14  C   LIG     1      28.608  26.483  33.807  1.00  0.00     0.003 C 
HETATM   15  C   LIG     1      28.316  27.456  34.994  1.00  0.00     0.024 C 
HETATM   16  C   LIG     1      27.575  26.865  36.234  1.00  0.00     0.123 C 
HETATM   17  C   LIG     1      27.061  27.986  37.198  1.00  0.00     0.037 C 
HETATM   18  C   LIG     1      27.875  29.286  37.020  1.00  0.00    -0.001 C 
HETATM   19  C   LIG     1      27.682  30.331  38.129  1.00  0.00     0.037 C 
ENDROOT
BRANCH  11  20
HETATM   20  C   LIG     1      29.192  25.603  30.512  1.00  0.00    -0.013 C 
HETATM   21  C   LIG     1      30.654  25.168  30.744  1.00  0.00     0.010 C 
BRANCH  20  22
HETATM   22  C   LIG     1      28.655  25.133  29.127  1.00  0.00     0.015 C 
BRANCH  22  23
HETATM   23  C   LIG     1      27.281  25.675  28.695  1.00  0.00     0.110 C 
BRANCH  23  24
HETATM   24  C   LIG     1      26.492  24.616  27.977  1.00  0.00     0.139 C 
HETATM   25  O   LIG     1      26.487  23.436  28.413  1.00  0.00    -0.650 OA
BRANCH  24  26
HETATM   26  O   LIG     1      25.746  24.927  26.843  1.00  0.00    -0.776 OA
HETATM   27  H   LIG     1      24.735  24.875  26.846  1.00  0.00     0.167 HD
ENDBRANCH  24  26
ENDBRANCH  23  24
ENDBRANCH  22  23
ENDBRANCH  20  22
ENDBRANCH  11  20
BRANCH   8  28
HETATM   28  O   LIG     1      28.216  28.240  30.858  1.00  0.00    -0.395 OA
HETATM   29  H   LIG     1      29.173  28.025  31.015  1.00  0.00     0.210 HD
ENDBRANCH   8  28
BRANCH  16  30
HETATM   30  O   LIG     1      28.458  26.023  36.931  1.00  0.00    -0.395 OA
HETATM   31  H   LIG     1      27.912  25.295  37.326  1.00  0.00     0.210 HD
ENDBRANCH  16  30
BRANCH   1  32
HETATM   32  O   LIG     1      27.678  32.728  37.748  1.00  0.00    -0.396 OA
HETATM   33  H   LIG     1      28.054  33.452  38.317  1.00  0.00     0.210 HD
ENDBRANCH   1  32
TORSDOF 8
ENDMDL
MODEL 8
REMARK VINA RESULT:      -4.4      2.475      7.481
REMARK  8 active torsions:
REMARK  status: ('A' for Active; 'I' for Inactive)
REMARK    1  A    between atoms: O_1  and  C_2 
REMARK    2  A    between atoms: C_9  and  O_10 
REMARK    3  A    between atoms: C_13  and  C_14 
REMARK    4  A    between atoms: C_14  and  C_16 
REMARK    5  A    between atoms: C_16  and  C_17 
REMARK    6  A    between atoms: C_17  and  C_18 
REMARK    7  A    between atoms: C_18  and  O_19 
REMARK    8  A    between atoms: C_25  and  O_26 
ROOT
HETATM    1  C   LIG     1      26.312  24.682  18.254  1.00  0.00     0.118 C 
HETATM    2  C   LIG     1      26.567  25.692  19.413  1.00  0.00     0.032 C 
HETATM    3  C   LIG     1      27.309  25.129  20.659  1.00  0.00     0.012 C 
HETATM    4  C   LIG     1      27.144  23.593  20.884  1.00  0.00    -0.036 C 
HETATM    5  C   LIG     1      28.335  22.859  20.194  1.00  0.00     0.016 C 
HETATM    6  C   LIG     1      27.170  23.168  22.411  1.00  0.00     0.003 C 
HETATM    7  C   LIG     1      28.116  23.965  23.335  1.00  0.00     0.038 C 
HETATM    8  C   LIG     1      28.345  23.240  24.697  1.00  0.00     0.127 C 
HETATM    9  C   LIG     1      27.036  22.516  25.271  1.00  0.00    -0.010 C 
HETATM   10  C   LIG     1      27.185  20.981  24.979  1.00  0.00     0.018 C 
HETATM   11  C   LIG     1      26.610  22.604  26.805  1.00  0.00     0.000 C 
HETATM   12  C   LIG     1      25.059  22.432  26.784  1.00  0.00     0.006 C 
HETATM   13  C   LIG     1      24.586  22.523  25.332  1.00  0.00     0.006 C 
HETATM   14  C   LIG     1      25.779  23.090  24.583  1.00  0.00     0.003 C 
HETATM   15  C   LIG     1      25.746  23.075  23.020  1.00  0.00     0.024 C 
HETATM   16  C   LIG     1      24.955  21.917  22.336  1.00  0.00     0.123 C 
HETATM   17  C   LIG     1      25.261  21.825  20.803  1.00  0.00     0.037 C 
HETATM   18  C   LIG     1      25.766  23.177  20.257  1.00  0.00    -0.001 C 
HETATM   19  C   LIG     1      25.780  23.296  18.726  1.00  0.00     0.037 C 
ENDROOT
BRANCH  11  20
HETATM   20  C   LIG     1      27.071  23.809  27.710  1.00  0.00    -0.013 C 
HETATM   21  C   LIG     1      26.184  25.070  27.629  1.00  0.00     0.010 C 
BRANCH  20  22
HETATM   22  C   LIG     1      27.397  23.417  29.183  1.00  0.00     0.015 C 
BRANCH  22  23
HETATM   23  C   LIG     1      28.875  23.482  29.606  1.00  0.00     0.110 C 
BRANCH  23  24
HETATM   24  C   LIG     1      29.526  24.732  29.083  1.00  0.00     0.139 C 
HETATM   25  O   LIG     1      29.253  25.843  29.605  1.00  0.00    -0.650 OA
BRANCH  24  26
HETATM   26  O   LIG     1      30.446  24.676  28.039  1.00  0.00    -0.776 OA
HETATM   27  H   LIG     1      31.431  24.846  28.194  1.00  0.00     0.167 HD
ENDBRANCH  24  26
ENDBRANCH  23  24
ENDBRANCH  22  23
ENDBRANCH  20  22
ENDBRANCH  11  20
BRANCH   8  28
HETATM   28  O   LIG     1      28.906  24.165  25.581  1.00  0.00    -0.395 OA
HETATM   29  H   LIG     1      28.828  25.067  25.170  1.00  0.00     0.210 HD
ENDBRANCH   8  28
BRANCH  16  30
HETATM   30  O   LIG     1      23.579  22.136  22.521  1.00  0.00    -0.395 OA
HETATM   31  H   LIG     1      23.477  23.060  22.865  1.00  0.00     0.210 HD
ENDBRANCH  16  30
BRANCH   1  32
HETATM   32  O   LIG     1      27.468  24.512  17.475  1.00  0.00    -0.396 OA
HETATM   33  H   LIG     1      27.477  23.569  17.159  1.00  0.00     0.210 HD
ENDBRANCH   1  32
TORSDOF 8
ENDMDL
MODEL 9
REMARK VINA RESULT:      -4.3      1.769      3.691
REMARK  8 active torsions:
REMARK  status: ('A' for Active; 'I' for Inactive)
REMARK    1  A    between atoms: O_1  and  C_2 
REMARK    2  A    between atoms: C_9  and  O_10 
REMARK    3  A    between atoms: C_13  and  C_14 
REMARK    4  A    between atoms: C_14  and  C_16 
REMARK    5  A    between atoms: C_16  and  C_17 
REMARK    6  A    between atoms: C_17  and  C_18 
REMARK    7  A    between atoms: C_18  and  O_19 
REMARK    8  A    between atoms: C_25  and  O_26 
ROOT
HETATM    1  C   LIG     1      28.171  25.673  29.256  1.00  0.00     0.118 C 
HETATM    2  C   LIG     1      26.719  25.761  28.699  1.00  0.00     0.032 C 
HETATM    3  C   LIG     1      26.207  24.511  27.926  1.00  0.00     0.012 C 
HETATM    4  C   LIG     1      27.325  23.640  27.269  1.00  0.00    -0.036 C 
HETATM    5  C   LIG     1      27.726  22.510  28.266  1.00  0.00     0.016 C 
HETATM    6  C   LIG     1      26.869  22.926  25.929  1.00  0.00     0.003 C 
HETATM    7  C   LIG     1      25.405  22.440  25.869  1.00  0.00     0.038 C 
HETATM    8  C   LIG     1      25.173  21.440  24.694  1.00  0.00     0.127 C 
HETATM    9  C   LIG     1      25.982  21.811  23.362  1.00  0.00    -0.010 C 
HETATM   10  C   LIG     1      27.226  20.856  23.290  1.00  0.00     0.018 C 
HETATM   11  C   LIG     1      25.325  21.740  21.910  1.00  0.00     0.000 C 
HETATM   12  C   LIG     1      26.117  22.795  21.078  1.00  0.00     0.006 C 
HETATM   13  C   LIG     1      26.977  23.619  22.039  1.00  0.00     0.006 C 
HETATM   14  C   LIG     1      26.422  23.290  23.414  1.00  0.00     0.003 C 
HETATM   15  C   LIG     1      27.232  23.753  24.668  1.00  0.00     0.024 C 
HETATM   16  C   LIG     1      28.783  23.839  24.523  1.00  0.00     0.123 C 
HETATM   17  C   LIG     1      29.493  23.996  25.909  1.00  0.00     0.037 C 
HETATM   18  C   LIG     1      28.533  24.594  26.959  1.00  0.00    -0.001 C 
HETATM   19  C   LIG     1      29.206  25.095  28.245  1.00  0.00     0.037 C 
ENDROOT
BRANCH  11  20
HETATM   20  C   LIG     1      23.766  21.866  21.717  1.00  0.00    -0.013 C 
HETATM   21  C   LIG     1      23.227  23.310  21.630  1.00  0.00     0.010 C 
BRANCH  20  22
HETATM   22  C   LIG     1      23.185  20.957  20.592  1.00  0.00     0.015 C 
BRANCH  22  23
HETATM   23  C   LIG     1      22.810  21.646  19.268  1.00  0.00     0.110 C 
BRANCH  23  24
HETATM   24  C   LIG     1      23.967  21.625  18.310  1.00  0.00     0.139 C 
HETATM   25  O   LIG     1      24.394  20.526  17.871  1.00  0.00    -0.650 OA
BRANCH  24  26
HETATM   26  O   LIG     1      24.562  22.808  17.880  1.00  0.00    -0.776 OA
HETATM   27  H   LIG     1      25.178  22.829  17.078  1.00  0.00     0.167 HD
ENDBRANCH  24  26
ENDBRANCH  23  24
ENDBRANCH  22  23
ENDBRANCH  20  22
ENDBRANCH  11  20
BRANCH   8  28
HETATM   28  O   LIG     1      23.794  21.328  24.498  1.00  0.00    -0.395 OA
HETATM   29  H   LIG     1      23.353  21.388  25.387  1.00  0.00     0.210 HD
ENDBRANCH   8  28
BRANCH  16  30
HETATM   30  O   LIG     1      29.103  24.940  23.711  1.00  0.00    -0.395 OA
HETATM   31  H   LIG     1      29.883  24.676  23.159  1.00  0.00     0.210 HD
ENDBRANCH  16  30
BRANCH   1  32
HETATM   32  O   LIG     1      28.205  24.934  30.451  1.00  0.00    -0.396 OA
HETATM   33  H   LIG     1      27.671  25.435  31.124  1.00  0.00     0.210 HD
ENDBRANCH   1  32
TORSDOF 8
ENDMDL
MODEL 10
REMARK VINA RESULT:      -4.3      2.293      2.878
REMARK  8 active torsions:
REMARK  status: ('A' for Active; 'I' for Inactive)
REMARK    1  A    between atoms: O_1  and  C_2 
REMARK    2  A    between atoms: C_9  and  O_10 
REMARK    3  A    between atoms: C_13  and  C_14 
REMARK    4  A    between atoms: C_14  and  C_16 
REMARK    5  A    between atoms: C_16  and  C_17 
REMARK    6  A    between atoms: C_17  and  C_18 
REMARK    7  A    between atoms: C_18  and  O_19 
REMARK    8  A    between atoms: C_25  and  O_26 
ROOT
HETATM    1  C   LIG     1      27.315  22.567  28.814  1.00  0.00     0.118 C 
HETATM    2  C   LIG     1      28.249  22.111  27.653  1.00  0.00     0.032 C 
HETATM    3  C   LIG     1      27.898  22.659  26.240  1.00  0.00     0.012 C 
HETATM    4  C   LIG     1      26.396  23.034  26.033  1.00  0.00    -0.036 C 
HETATM    5  C   LIG     1      26.213  24.550  26.357  1.00  0.00     0.016 C 
HETATM    6  C   LIG     1      25.886  22.820  24.548  1.00  0.00     0.003 C 
HETATM    7  C   LIG     1      26.896  23.119  23.419  1.00  0.00     0.038 C 
HETATM    8  C   LIG     1      26.196  23.242  22.031  1.00  0.00     0.127 C 
HETATM    9  C   LIG     1      24.997  22.203  21.818  1.00  0.00    -0.010 C 
HETATM   10  C   LIG     1      23.655  22.991  22.024  1.00  0.00     0.018 C 
HETATM   11  C   LIG     1      24.793  21.392  20.460  1.00  0.00     0.000 C 
HETATM   12  C   LIG     1      24.064  20.084  20.899  1.00  0.00     0.006 C 
HETATM   13  C   LIG     1      24.093  20.007  22.427  1.00  0.00     0.006 C 
HETATM   14  C   LIG     1      25.121  21.048  22.836  1.00  0.00     0.003 C 
HETATM   15  C   LIG     1      25.224  21.432  24.347  1.00  0.00     0.024 C 
HETATM   16  C   LIG     1      23.917  21.343  25.195  1.00  0.00     0.123 C 
HETATM   17  C   LIG     1      24.072  22.049  26.584  1.00  0.00     0.037 C 
HETATM   18  C   LIG     1      25.555  22.130  27.003  1.00  0.00    -0.001 C 
HETATM   19  C   LIG     1      25.797  22.495  28.474  1.00  0.00     0.037 C 
ENDROOT
BRANCH  11  20
HETATM   20  C   LIG     1      26.004  21.111  19.492  1.00  0.00    -0.013 C 
HETATM   21  C   LIG     1      26.372  19.623  19.311  1.00  0.00     0.010 C 
BRANCH  20  22
HETATM   22  C   LIG     1      25.922  21.862  18.128  1.00  0.00     0.015 C 
BRANCH  22  23
HETATM   23  C   LIG     1      25.212  23.227  18.130  1.00  0.00     0.110 C 
BRANCH  23  24
HETATM   24  C   LIG     1      26.204  24.344  18.298  1.00  0.00     0.139 C 
HETATM   25  O   LIG     1      27.238  24.373  17.583  1.00  0.00    -0.650 OA
BRANCH  24  26
HETATM   26  O   LIG     1      25.985  25.363  19.221  1.00  0.00    -0.776 OA
HETATM   27  H   LIG     1      25.071  25.783  19.338  1.00  0.00     0.167 HD
ENDBRANCH  24  26
ENDBRANCH  23  24
ENDBRANCH  22  23
ENDBRANCH  20  22
ENDBRANCH  11  20
BRANCH   8  28
HETATM   28  O   LIG     1      27.187  23.162  21.048  1.00  0.00    -0.395 OA
HETATM   29  H   LIG     1      26.926  22.447  20.408  1.00  0.00     0.210 HD
ENDBRANCH   8  28
BRANCH  16  30
HETATM   30  O   LIG     1      23.597  19.990  25.396  1.00  0.00    -0.395 OA
HETATM   31  H   LIG     1      24.127  19.467  24.742  1.00  0.00     0.210 HD
ENDBRANCH  16  30
BRANCH   1  32
HETATM   32  O   LIG     1      27.649  23.863  29.246  1.00  0.00    -0.396 OA
HETATM   33  H   LIG     1      27.351  24.496  28.539  1.00  0.00     0.210 HD
ENDBRANCH   1  32
TORSDOF 8
ENDMDL
MODEL 11
REMARK VINA RESULT:      -4.3      7.641     11.782
REMARK  8 active torsions:
REMARK  status: ('A' for Active; 'I' for Inactive)
REMARK    1  A    between atoms: O_1  and  C_2 
REMARK    2  A    between atoms: C_9  and  O_10 
REMARK    3  A    between atoms: C_13  and  C_14 
REMARK    4  A    between atoms: C_14  and  C_16 
REMARK    5  A    between atoms: C_16  and  C_17 
REMARK    6  A    between atoms: C_17  and  C_18 
REMARK    7  A    between atoms: C_18  and  O_19 
REMARK    8  A    between atoms: C_25  and  O_26 
ROOT
HETATM    1  C   LIG     1      27.190  31.392  36.831  1.00  0.00     0.118 C 
HETATM    2  C   LIG     1      26.136  30.564  36.039  1.00  0.00     0.032 C 
HETATM    3  C   LIG     1      26.638  29.224  35.429  1.00  0.00     0.012 C 
HETATM    4  C   LIG     1      28.170  29.171  35.127  1.00  0.00    -0.036 C 
HETATM    5  C   LIG     1      28.898  28.556  36.362  1.00  0.00     0.016 C 
HETATM    6  C   LIG     1      28.542  28.265  33.881  1.00  0.00     0.003 C 
HETATM    7  C   LIG     1      27.691  26.995  33.671  1.00  0.00     0.038 C 
HETATM    8  C   LIG     1      28.364  26.004  32.671  1.00  0.00     0.127 C 
HETATM    9  C   LIG     1      29.098  26.725  31.443  1.00  0.00    -0.010 C 
HETATM   10  C   LIG     1      30.639  26.709  31.747  1.00  0.00     0.018 C 
HETATM   11  C   LIG     1      28.969  26.207  29.941  1.00  0.00     0.000 C 
HETATM   12  C   LIG     1      29.178  27.487  29.073  1.00  0.00     0.006 C 
HETATM   13  C   LIG     1      29.148  28.705  29.999  1.00  0.00     0.006 C 
HETATM   14  C   LIG     1      28.578  28.173  31.302  1.00  0.00     0.003 C 
HETATM   15  C   LIG     1      28.648  29.086  32.568  1.00  0.00     0.024 C 
HETATM   16  C   LIG     1      29.846  30.081  32.664  1.00  0.00     0.123 C 
HETATM   17  C   LIG     1      29.983  30.696  34.097  1.00  0.00     0.037 C 
HETATM   18  C   LIG     1      28.639  30.644  34.853  1.00  0.00    -0.001 C 
HETATM   19  C   LIG     1      28.572  31.507  36.122  1.00  0.00     0.037 C 
ENDROOT
BRANCH  11  20
HETATM   20  C   LIG     1      27.723  25.361  29.477  1.00  0.00    -0.013 C 
HETATM   21  C   LIG     1      26.661  26.140  28.672  1.00  0.00     0.010 C 
BRANCH  20  22
HETATM   22  C   LIG     1      28.085  24.002  28.805  1.00  0.00     0.015 C 
BRANCH  22  23
HETATM   23  C   LIG     1      27.134  22.822  29.072  1.00  0.00     0.110 C 
BRANCH  23  24
HETATM   24  C   LIG     1      26.313  22.513  27.851  1.00  0.00     0.139 C 
HETATM   25  O   LIG     1      26.736  21.682  27.008  1.00  0.00    -0.650 OA
BRANCH  24  26
HETATM   26  O   LIG     1      25.074  23.118  27.650  1.00  0.00    -0.776 OA
HETATM   27  H   LIG     1      24.872  24.040  28.014  1.00  0.00     0.167 HD
ENDBRANCH  24  26
ENDBRANCH  23  24
ENDBRANCH  22  23
ENDBRANCH  20  22
ENDBRANCH  11  20
BRANCH   8  28
HETATM   28  O   LIG     1      27.395  25.076  32.277  1.00  0.00    -0.395 OA
HETATM   29  H   LIG     1      27.864  24.300  31.869  1.00  0.00     0.210 HD
ENDBRANCH   8  28
BRANCH  16  30
HETATM   30  O   LIG     1      29.654  31.115  31.732  1.00  0.00    -0.395 OA
HETATM   31  H   LIG     1      28.974  31.727  32.115  1.00  0.00     0.210 HD
ENDBRANCH  16  30
BRANCH   1  32
HETATM   32  O   LIG     1      27.360  30.878  38.128  1.00  0.00    -0.396 OA
HETATM   33  H   LIG     1      26.579  30.293  38.320  1.00  0.00     0.210 HD
ENDBRANCH   1  32
TORSDOF 8
ENDMDL
MODEL 12
REMARK VINA RESULT:      -4.2      5.980     11.350
REMARK  8 active torsions:
REMARK  status: ('A' for Active; 'I' for Inactive)
REMARK    1  A    between atoms: O_1  and  C_2 
REMARK    2  A    between atoms: C_9  and  O_10 
REMARK    3  A    between atoms: C_13  and  C_14 
REMARK    4  A    between atoms: C_14  and  C_16 
REMARK    5  A    between atoms: C_16  and  C_17 
REMARK    6  A    between atoms: C_17  and  C_18 
REMARK    7  A    between atoms: C_18  and  O_19 
REMARK    8  A    between atoms: C_25  and  O_26 
ROOT
HETATM    1  C   LIG     1      26.756  22.852  25.007  1.00  0.00     0.118 C 
HETATM    2  C   LIG     1      25.697  23.450  25.980  1.00  0.00     0.032 C 
HETATM    3  C   LIG     1      26.208  24.552  26.952  1.00  0.00     0.012 C 
HETATM    4  C   LIG     1      27.732  24.482  27.284  1.00  0.00    -0.036 C 
HETATM    5  C   LIG     1      28.501  25.402  26.286  1.00  0.00     0.016 C 
HETATM    6  C   LIG     1      28.089  24.992  28.742  1.00  0.00     0.003 C 
HETATM    7  C   LIG     1      27.256  26.173  29.285  1.00  0.00     0.038 C 
HETATM    8  C   LIG     1      27.922  26.826  30.536  1.00  0.00     0.127 C 
HETATM    9  C   LIG     1      28.613  25.773  31.524  1.00  0.00    -0.010 C 
HETATM   10  C   LIG     1      30.160  25.837  31.266  1.00  0.00     0.018 C 
HETATM   11  C   LIG     1      28.456  25.851  33.109  1.00  0.00     0.000 C 
HETATM   12  C   LIG     1      28.621  24.374  33.585  1.00  0.00     0.006 C 
HETATM   13  C   LIG     1      28.593  23.466  32.354  1.00  0.00     0.006 C 
HETATM   14  C   LIG     1      28.064  24.356  31.243  1.00  0.00     0.003 C 
HETATM   15  C   LIG     1      28.149  23.834  29.772  1.00  0.00     0.024 C 
HETATM   16  C   LIG     1      29.332  22.878  29.423  1.00  0.00     0.123 C 
HETATM   17  C   LIG     1      29.493  22.686  27.878  1.00  0.00     0.037 C 
HETATM   18  C   LIG     1      28.169  22.980  27.142  1.00  0.00    -0.001 C 
HETATM   19  C   LIG     1      28.118  22.510  25.681  1.00  0.00     0.037 C 
ENDROOT
BRANCH  11  20
HETATM   20  C   LIG     1      27.214  26.562  33.769  1.00  0.00    -0.013 C 
HETATM   21  C   LIG     1      26.230  25.624  34.500  1.00  0.00     0.010 C 
BRANCH  20  22
HETATM   22  C   LIG     1      27.572  27.814  34.624  1.00  0.00     0.015 C 
BRANCH  22  23
HETATM   23  C   LIG     1      26.806  29.111  34.309  1.00  0.00     0.110 C 
BRANCH  23  24
HETATM   24  C   LIG     1      26.342  29.777  35.573  1.00  0.00     0.139 C 
HETATM   25  O   LIG     1      26.688  29.310  36.689  1.00  0.00    -0.650 OA
BRANCH  24  26
HETATM   26  O   LIG     1      25.549  30.921  35.529  1.00  0.00    -0.776 OA
HETATM   27  H   LIG     1      24.746  30.985  34.916  1.00  0.00     0.167 HD
ENDBRANCH  24  26
ENDBRANCH  23  24
ENDBRANCH  22  23
ENDBRANCH  20  22
ENDBRANCH  11  20
BRANCH   8  28
HETATM   28  O   LIG     1      26.960  27.629  31.157  1.00  0.00    -0.395 OA
HETATM   29  H   LIG     1      26.096  27.491  30.685  1.00  0.00     0.210 HD
ENDBRANCH   8  28
BRANCH  16  30
HETATM   30  O   LIG     1      29.099  21.629  30.023  1.00  0.00    -0.395 OA
HETATM   31  H   LIG     1      28.967  20.975  29.289  1.00  0.00     0.210 HD
ENDBRANCH  16  30
BRANCH   1  32
HETATM   32  O   LIG     1      26.966  23.706  23.910  1.00  0.00    -0.396 OA
HETATM   33  H   LIG     1      26.091  23.819  23.451  1.00  0.00     0.210 HD
ENDBRANCH   1  32
TORSDOF 8
ENDMDL
MODEL 13
REMARK VINA RESULT:      -4.2      1.909      7.901
REMARK  8 active torsions:
REMARK  status: ('A' for Active; 'I' for Inactive)
REMARK    1  A    between atoms: O_1  and  C_2 
REMARK    2  A    between atoms: C_9  and  O_10 
REMARK    3  A    between atoms: C_13  and  C_14 
REMARK    4  A    between atoms: C_14  and  C_16 
REMARK    5  A    between atoms: C_16  and  C_17 
REMARK    6  A    between atoms: C_17  and  C_18 
REMARK    7  A    between atoms: C_18  and  O_19 
REMARK    8  A    between atoms: C_25  and  O_26 
ROOT
HETATM    1  C   LIG     1      22.434  21.727  21.002  1.00  0.00     0.118 C 
HETATM    2  C   LIG     1      22.792  23.183  21.427  1.00  0.00     0.032 C 
HETATM    3  C   LIG     1      24.203  23.385  22.051  1.00  0.00     0.012 C 
HETATM    4  C   LIG     1      24.805  22.120  22.741  1.00  0.00    -0.036 C 
HETATM    5  C   LIG     1      25.684  21.357  21.702  1.00  0.00     0.016 C 
HETATM    6  C   LIG     1      25.744  22.454  23.974  1.00  0.00     0.003 C 
HETATM    7  C   LIG     1      26.606  23.729  23.861  1.00  0.00     0.038 C 
HETATM    8  C   LIG     1      27.742  23.759  24.930  1.00  0.00     0.127 C 
HETATM    9  C   LIG     1      27.303  23.176  26.355  1.00  0.00    -0.010 C 
HETATM   10  C   LIG     1      27.893  21.726  26.469  1.00  0.00     0.018 C 
HETATM   11  C   LIG     1      27.689  23.887  27.730  1.00  0.00     0.000 C 
HETATM   12  C   LIG     1      26.548  23.473  28.710  1.00  0.00     0.006 C 
HETATM   13  C   LIG     1      25.435  22.807  27.899  1.00  0.00     0.006 C 
HETATM   14  C   LIG     1      25.762  23.155  26.457  1.00  0.00     0.003 C 
HETATM   15  C   LIG     1      24.978  22.418  25.323  1.00  0.00     0.024 C 
HETATM   16  C   LIG     1      24.497  20.964  25.618  1.00  0.00     0.123 C 
HETATM   17  C   LIG     1      24.021  20.230  24.320  1.00  0.00     0.037 C 
HETATM   18  C   LIG     1      23.599  21.243  23.234  1.00  0.00    -0.001 C 
HETATM   19  C   LIG     1      22.812  20.646  22.058  1.00  0.00     0.037 C 
ENDROOT
BRANCH  11  20
HETATM   20  C   LIG     1      28.003  25.430  27.787  1.00  0.00    -0.013 C 
HETATM   21  C   LIG     1      27.120  26.246  28.755  1.00  0.00     0.010 C 
BRANCH  20  22
HETATM   22  C   LIG     1      29.515  25.771  27.947  1.00  0.00     0.015 C 
BRANCH  22  23
HETATM   23  C   LIG     1      29.885  27.263  28.017  1.00  0.00     0.110 C 
BRANCH  23  24
HETATM   24  C   LIG     1      30.168  27.807  26.644  1.00  0.00     0.139 C 
HETATM   25  O   LIG     1      30.258  27.020  25.667  1.00  0.00    -0.650 OA
BRANCH  24  26
HETATM   26  O   LIG     1      30.310  29.176  26.433  1.00  0.00    -0.776 OA
HETATM   27  H   LIG     1      29.537  29.743  26.109  1.00  0.00     0.167 HD
ENDBRANCH  24  26
ENDBRANCH  23  24
ENDBRANCH  22  23
ENDBRANCH  20  22
ENDBRANCH  11  20
BRANCH   8  28
HETATM   28  O   LIG     1      28.236  25.065  24.987  1.00  0.00    -0.395 OA
HETATM   29  H   LIG     1      27.750  25.544  25.709  1.00  0.00     0.210 HD
ENDBRANCH   8  28
BRANCH  16  30
HETATM   30  O   LIG     1      23.436  21.014  26.537  1.00  0.00    -0.395 OA
HETATM   31  H   LIG     1      22.614  21.217  26.021  1.00  0.00     0.210 HD
ENDBRANCH  16  30
BRANCH   1  32
HETATM   32  O   LIG     1      23.016  21.410  19.763  1.00  0.00    -0.396 OA
HETATM   33  H   LIG     1      23.269  22.267  19.326  1.00  0.00     0.210 HD
ENDBRANCH   1  32
TORSDOF 8
ENDMDL
MODEL 14
REMARK VINA RESULT:      -4.2      3.376      8.899
REMARK  8 active torsions:
REMARK  status: ('A' for Active; 'I' for Inactive)
REMARK    1  A    between atoms: O_1  and  C_2 
REMARK    2  A    between atoms: C_9  and  O_10 
REMARK    3  A    between atoms: C_13  and  C_14 
REMARK    4  A    between atoms: C_14  and  C_16 
REMARK    5  A    between atoms: C_16  and  C_17 
REMARK    6  A    between atoms: C_17  and  C_18 
REMARK    7  A    between atoms: C_18  and  O_19 
REMARK    8  A    between atoms: C_25  and  O_26 
ROOT
HETATM    1  C   LIG     1      27.419  24.468  19.872  1.00  0.00     0.118 C 
HETATM    2  C   LIG     1      27.671  25.805  20.629  1.00  0.00     0.032 C 
HETATM    3  C   LIG     1      28.517  25.704  21.931  1.00  0.00     0.012 C 
HETATM    4  C   LIG     1      28.466  24.315  22.643  1.00  0.00    -0.036 C 
HETATM    5  C   LIG     1      29.662  23.452  22.134  1.00  0.00     0.016 C 
HETATM    6  C   LIG     1      28.604  24.403  24.219  1.00  0.00     0.003 C 
HETATM    7  C   LIG     1      29.545  25.494  24.771  1.00  0.00     0.038 C 
HETATM    8  C   LIG     1      29.897  25.254  26.272  1.00  0.00     0.127 C 
HETATM    9  C   LIG     1      28.672  24.696  27.140  1.00  0.00    -0.010 C 
HETATM   10  C   LIG     1      28.905  23.156  27.338  1.00  0.00     0.018 C 
HETATM   11  C   LIG     1      28.327  25.251  28.595  1.00  0.00     0.000 C 
HETATM   12  C   LIG     1      26.792  25.013  28.743  1.00  0.00     0.006 C 
HETATM   13  C   LIG     1      26.234  24.613  27.375  1.00  0.00     0.006 C 
HETATM   14  C   LIG     1      27.343  24.963  26.400  1.00  0.00     0.003 C 
HETATM   15  C   LIG     1      27.225  24.446  24.929  1.00  0.00     0.024 C 
HETATM   16  C   LIG     1      26.474  23.097  24.706  1.00  0.00     0.123 C 
HETATM   17  C   LIG     1      26.700  22.533  23.264  1.00  0.00     0.037 C 
HETATM   18  C   LIG     1      27.085  23.660  22.282  1.00  0.00    -0.001 C 
HETATM   19  C   LIG     1      27.006  23.283  20.795  1.00  0.00     0.037 C 
ENDROOT
BRANCH  11  20
HETATM   20  C   LIG     1      28.758  26.701  29.035  1.00  0.00    -0.013 C 
HETATM   21  C   LIG     1      27.600  27.640  29.434  1.00  0.00     0.010 C 
BRANCH  20  22
HETATM   22  C   LIG     1      29.922  26.737  30.070  1.00  0.00     0.015 C 
BRANCH  22  23
HETATM   23  C   LIG     1      29.994  25.573  31.074  1.00  0.00     0.110 C 
BRANCH  23  24
HETATM   24  C   LIG     1      29.012  25.775  32.194  1.00  0.00     0.139 C 
HETATM   25  O   LIG     1      28.036  24.991  32.317  1.00  0.00    -0.650 OA
BRANCH  24  26
HETATM   26  O   LIG     1      29.180  26.805  33.116  1.00  0.00    -0.776 OA
HETATM   27  H   LIG     1      28.437  27.462  33.315  1.00  0.00     0.167 HD
ENDBRANCH  24  26
ENDBRANCH  23  24
ENDBRANCH  22  23
ENDBRANCH  20  22
ENDBRANCH  11  20
BRANCH   8  28
HETATM   28  O   LIG     1      30.445  26.438  26.774  1.00  0.00    -0.395 OA
HETATM   29  H   LIG     1      29.935  26.689  27.590  1.00  0.00     0.210 HD
ENDBRANCH   8  28
BRANCH  16  30
HETATM   30  O   LIG     1      25.100  23.303  24.913  1.00  0.00    -0.395 OA
HETATM   31  H   LIG     1      24.699  22.415  25.098  1.00  0.00     0.210 HD
ENDBRANCH  16  30
BRANCH   1  32
HETATM   32  O   LIG     1      28.539  24.108  19.103  1.00  0.00    -0.396 OA
HETATM   33  H   LIG     1      28.306  23.276  18.610  1.00  0.00     0.210 HD
ENDBRANCH   1  32
TORSDOF 8
ENDMDL
MODEL 15
REMARK VINA RESULT:      -4.0      2.284      8.191
REMARK  8 active torsions:
REMARK  status: ('A' for Active; 'I' for Inactive)
REMARK    1  A    between atoms: O_1  and  C_2 
REMARK    2  A    between atoms: C_9  and  O_10 
REMARK    3  A    between atoms: C_13  and  C_14 
REMARK    4  A    between atoms: C_14  and  C_16 
REMARK    5  A    between atoms: C_16  and  C_17 
REMARK    6  A    between atoms: C_17  and  C_18 
REMARK    7  A    between atoms: C_18  and  O_19 
REMARK    8  A    between atoms: C_25  and  O_26 
ROOT
HETATM    1  C   LIG     1      22.809  21.466  21.304  1.00  0.00     0.118 C 
HETATM    2  C   LIG     1      23.550  22.799  20.986  1.00  0.00     0.032 C 
HETATM    3  C   LIG     1      25.030  22.887  21.456  1.00  0.00     0.012 C 
HETATM    4  C   LIG     1      25.389  21.978  22.675  1.00  0.00    -0.036 C 
HETATM    5  C   LIG     1      25.935  20.619  22.138  1.00  0.00     0.016 C 
HETATM    6  C   LIG     1      26.515  22.585  23.611  1.00  0.00     0.003 C 
HETATM    7  C   LIG     1      27.638  23.383  22.914  1.00  0.00     0.038 C 
HETATM    8  C   LIG     1      28.863  23.604  23.853  1.00  0.00     0.127 C 
HETATM    9  C   LIG     1      28.465  23.889  25.378  1.00  0.00    -0.010 C 
HETATM   10  C   LIG     1      28.701  22.559  26.179  1.00  0.00     0.018 C 
HETATM   11  C   LIG     1      29.164  25.026  26.251  1.00  0.00     0.000 C 
HETATM   12  C   LIG     1      28.078  25.432  27.295  1.00  0.00     0.006 C 
HETATM   13  C   LIG     1      26.753  24.787  26.885  1.00  0.00     0.006 C 
HETATM   14  C   LIG     1      26.985  24.325  25.457  1.00  0.00     0.003 C 
HETATM   15  C   LIG     1      25.924  23.383  24.802  1.00  0.00     0.024 C 
HETATM   16  C   LIG     1      25.147  22.418  25.750  1.00  0.00     0.123 C 
HETATM   17  C   LIG     1      24.364  21.321  24.954  1.00  0.00     0.037 C 
HETATM   18  C   LIG     1      24.073  21.784  23.511  1.00  0.00    -0.001 C 
HETATM   19  C   LIG     1      23.037  20.942  22.753  1.00  0.00     0.037 C 
ENDROOT
BRANCH  11  20
HETATM   20  C   LIG     1      29.841  26.274  25.567  1.00  0.00    -0.013 C 
HETATM   21  C   LIG     1      28.910  27.122  24.675  1.00  0.00     0.010 C 
BRANCH  20  22
HETATM   22  C   LIG     1      30.684  27.156  26.537  1.00  0.00     0.015 C 
BRANCH  22  23
HETATM   23  C   LIG     1      30.313  28.647  26.616  1.00  0.00     0.110 C 
BRANCH  23  24
HETATM   24  C   LIG     1      29.961  29.035  28.025  1.00  0.00     0.139 C 
HETATM   25  O   LIG     1      30.500  30.043  28.549  1.00  0.00    -0.650 OA
BRANCH  24  26
HETATM   26  O   LIG     1      29.025  28.305  28.755  1.00  0.00    -0.776 OA
HETATM   27  H   LIG     1      29.049  27.294  28.782  1.00  0.00     0.167 HD
ENDBRANCH  24  26
ENDBRANCH  23  24
ENDBRANCH  22  23
ENDBRANCH  20  22
ENDBRANCH  11  20
BRANCH   8  28
HETATM   28  O   LIG     1      29.658  24.604  23.286  1.00  0.00    -0.395 OA
HETATM   29  H   LIG     1      29.165  24.983  22.511  1.00  0.00     0.210 HD
ENDBRANCH   8  28
BRANCH  16  30
HETATM   30  O   LIG     1      24.241  23.167  26.520  1.00  0.00    -0.395 OA
HETATM   31  H   LIG     1      24.726  23.462  27.333  1.00  0.00     0.210 HD
ENDBRANCH  16  30
BRANCH   1  32
HETATM   32  O   LIG     1      23.152  20.469  20.374  1.00  0.00    -0.396 OA
HETATM   33  H   LIG     1      22.961  20.830  19.468  1.00  0.00     0.210 HD
ENDBRANCH   1  32
TORSDOF 8
ENDMDL
MODEL 16
REMARK VINA RESULT:      -3.9      2.881      8.375
REMARK  8 active torsions:
REMARK  status: ('A' for Active; 'I' for Inactive)
REMARK    1  A    between atoms: O_1  and  C_2 
REMARK    2  A    between atoms: C_9  and  O_10 
REMARK    3  A    between atoms: C_13  and  C_14 
REMARK    4  A    between atoms: C_14  and  C_16 
REMARK    5  A    between atoms: C_16  and  C_17 
REMARK    6  A    between atoms: C_17  and  C_18 
REMARK    7  A    between atoms: C_18  and  O_19 
REMARK    8  A    between atoms: C_25  and  O_26 
ROOT
HETATM    1  C   LIG     1      22.510  21.763  20.865  1.00  0.00     0.118 C 
HETATM    2  C   LIG     1      22.850  23.132  21.526  1.00  0.00     0.032 C 
HETATM    3  C   LIG     1      24.227  23.220  22.246  1.00  0.00     0.012 C 
HETATM    4  C   LIG     1      24.787  21.857  22.765  1.00  0.00    -0.036 C 
HETATM    5  C   LIG     1      25.716  21.251  21.668  1.00  0.00     0.016 C 
HETATM    6  C   LIG     1      25.659  21.988  24.082  1.00  0.00     0.003 C 
HETATM    7  C   LIG     1      26.531  23.255  24.210  1.00  0.00     0.038 C 
HETATM    8  C   LIG     1      27.609  23.108  25.328  1.00  0.00     0.127 C 
HETATM    9  C   LIG     1      27.092  22.320  26.623  1.00  0.00    -0.010 C 
HETATM   10  C   LIG     1      27.670  20.862  26.544  1.00  0.00     0.018 C 
HETATM   11  C   LIG     1      27.407  22.808  28.108  1.00  0.00     0.000 C 
HETATM   12  C   LIG     1      26.215  22.262  28.953  1.00  0.00     0.006 C 
HETATM   13  C   LIG     1      25.143  21.742  27.993  1.00  0.00     0.006 C 
HETATM   14  C   LIG     1      25.548  22.301  26.640  1.00  0.00     0.003 C 
HETATM   15  C   LIG     1      24.823  21.756  25.367  1.00  0.00     0.024 C 
HETATM   16  C   LIG     1      24.321  20.279  25.411  1.00  0.00     0.123 C 
HETATM   17  C   LIG     1      23.912  19.758  23.993  1.00  0.00     0.037 C 
HETATM   18  C   LIG     1      23.553  20.929  23.054  1.00  0.00    -0.001 C 
HETATM   19  C   LIG     1      22.827  20.528  21.761  1.00  0.00     0.037 C 
ENDROOT
BRANCH  11  20
HETATM   20  C   LIG     1      27.724  24.320  28.417  1.00  0.00    -0.013 C 
HETATM   21  C   LIG     1      26.567  25.304  28.143  1.00  0.00     0.010 C 
BRANCH  20  22
HETATM   22  C   LIG     1      28.383  24.566  29.808  1.00  0.00     0.015 C 
BRANCH  22  23
HETATM   23  C   LIG     1      28.229  25.975  30.408  1.00  0.00     0.110 C 
BRANCH  23  24
HETATM   24  C   LIG     1      27.436  25.927  31.683  1.00  0.00     0.139 C 
HETATM   25  O   LIG     1      27.788  25.152  32.609  1.00  0.00    -0.650 OA
BRANCH  24  26
HETATM   26  O   LIG     1      26.325  26.747  31.866  1.00  0.00    -0.776 OA
HETATM   27  H   LIG     1      25.537  26.453  32.428  1.00  0.00     0.167 HD
ENDBRANCH  24  26
ENDBRANCH  23  24
ENDBRANCH  22  23
ENDBRANCH  20  22
ENDBRANCH  11  20
BRANCH   8  28
HETATM   28  O   LIG     1      28.104  24.384  25.610  1.00  0.00    -0.395 OA
HETATM   29  H   LIG     1      29.079  24.302  25.787  1.00  0.00     0.210 HD
ENDBRANCH   8  28
BRANCH  16  30
HETATM   30  O   LIG     1      23.213  20.201  26.271  1.00  0.00    -0.395 OA
HETATM   31  H   LIG     1      22.482  19.765  25.762  1.00  0.00     0.210 HD
ENDBRANCH  16  30
BRANCH   1  32
HETATM   32  O   LIG     1      23.156  21.631  19.624  1.00  0.00    -0.396 OA
HETATM   33  H   LIG     1      22.583  22.076  18.944  1.00  0.00     0.210 HD
ENDBRANCH   1  32
TORSDOF 8
ENDMDL
MODEL 17
REMARK VINA RESULT:      -3.9      6.885     10.714
REMARK  8 active torsions:
REMARK  status: ('A' for Active; 'I' for Inactive)
REMARK    1  A    between atoms: O_1  and  C_2 
REMARK    2  A    between atoms: C_9  and  O_10 
REMARK    3  A    between atoms: C_13  and  C_14 
REMARK    4  A    between atoms: C_14  and  C_16 
REMARK    5  A    between atoms: C_16  and  C_17 
REMARK    6  A    between atoms: C_17  and  C_18 
REMARK    7  A    between atoms: C_18  and  O_19 
REMARK    8  A    between atoms: C_25  and  O_26 
ROOT
HETATM    1  C   LIG     1      27.258  30.344  35.398  1.00  0.00     0.118 C 
HETATM    2  C   LIG     1      26.208  29.466  34.654  1.00  0.00     0.032 C 
HETATM    3  C   LIG     1      26.742  28.147  34.025  1.00  0.00     0.012 C 
HETATM    4  C   LIG     1      28.260  28.161  33.656  1.00  0.00    -0.036 C 
HETATM    5  C   LIG     1      29.068  27.583  34.859  1.00  0.00     0.016 C 
HETATM    6  C   LIG     1      28.616  27.268  32.396  1.00  0.00     0.003 C 
HETATM    7  C   LIG     1      27.814  25.960  32.226  1.00  0.00     0.038 C 
HETATM    8  C   LIG     1      28.486  24.997  31.199  1.00  0.00     0.127 C 
HETATM    9  C   LIG     1      29.133  25.745  29.940  1.00  0.00    -0.010 C 
HETATM   10  C   LIG     1      30.684  25.798  30.175  1.00  0.00     0.018 C 
HETATM   11  C   LIG     1      28.961  25.216  28.445  1.00  0.00     0.000 C 
HETATM   12  C   LIG     1      29.075  26.501  27.567  1.00  0.00     0.006 C 
HETATM   13  C   LIG     1      29.032  27.719  28.491  1.00  0.00     0.006 C 
HETATM   14  C   LIG     1      28.544  27.167  29.819  1.00  0.00     0.003 C 
HETATM   15  C   LIG     1      28.629  28.088  31.079  1.00  0.00     0.024 C 
HETATM   16  C   LIG     1      29.785  29.135  31.120  1.00  0.00     0.123 C 
HETATM   17  C   LIG     1      29.957  29.761  32.544  1.00  0.00     0.037 C 
HETATM   18  C   LIG     1      28.651  29.653  33.359  1.00  0.00    -0.001 C 
HETATM   19  C   LIG     1      28.601  30.517  34.628  1.00  0.00     0.037 C 
ENDROOT
BRANCH  11  20
HETATM   20  C   LIG     1      27.735  24.314  28.038  1.00  0.00    -0.013 C 
HETATM   21  C   LIG     1      26.768  24.941  27.011  1.00  0.00     0.010 C 
BRANCH  20  22
HETATM   22  C   LIG     1      28.112  22.849  27.666  1.00  0.00     0.015 C 
BRANCH  22  23
HETATM   23  C   LIG     1      29.527  22.379  28.048  1.00  0.00     0.110 C 
BRANCH  23  24
HETATM   24  C   LIG     1      29.473  21.394  29.182  1.00  0.00     0.139 C 
HETATM   25  O   LIG     1      29.486  21.807  30.370  1.00  0.00    -0.650 OA
BRANCH  24  26
HETATM   26  O   LIG     1      29.386  20.025  28.937  1.00  0.00    -0.776 OA
HETATM   27  H   LIG     1      28.927  19.401  29.587  1.00  0.00     0.167 HD
ENDBRANCH  24  26
ENDBRANCH  23  24
ENDBRANCH  22  23
ENDBRANCH  20  22
ENDBRANCH  11  20
BRANCH   8  28
HETATM   28  O   LIG     1      27.543  24.026  30.850  1.00  0.00    -0.395 OA
HETATM   29  H   LIG     1      26.789  24.483  30.392  1.00  0.00     0.210 HD
ENDBRANCH   8  28
BRANCH  16  30
HETATM   30  O   LIG     1      29.507  30.156  30.196  1.00  0.00    -0.395 OA
HETATM   31  H   LIG     1      28.520  30.211  30.114  1.00  0.00     0.210 HD
ENDBRANCH  16  30
BRANCH   1  32
HETATM   32  O   LIG     1      27.507  29.842  36.687  1.00  0.00    -0.396 OA
HETATM   33  H   LIG     1      27.857  30.594  37.235  1.00  0.00     0.210 HD
ENDBRANCH   1  32
TORSDOF 8
ENDMDL
MODEL 18
REMARK VINA RESULT:      -3.8      6.129      8.952
REMARK  8 active torsions:
REMARK  status: ('A' for Active; 'I' for Inactive)
REMARK    1  A    between atoms: O_1  and  C_2 
REMARK    2  A    between atoms: C_9  and  O_10 
REMARK    3  A    between atoms: C_13  and  C_14 
REMARK    4  A    between atoms: C_14  and  C_16 
REMARK    5  A    between atoms: C_16  and  C_17 
REMARK    6  A    between atoms: C_17  and  C_18 
REMARK    7  A    between atoms: C_18  and  O_19 
REMARK    8  A    between atoms: C_25  and  O_26 
ROOT
HETATM    1  C   LIG     1      27.918  27.959  35.037  1.00  0.00     0.118 C 
HETATM    2  C   LIG     1      26.934  26.765  34.857  1.00  0.00     0.032 C 
HETATM    3  C   LIG     1      27.419  25.615  33.928  1.00  0.00     0.012 C 
HETATM    4  C   LIG     1      28.456  26.040  32.840  1.00  0.00    -0.036 C 
HETATM    5  C   LIG     1      29.892  25.809  33.405  1.00  0.00     0.016 C 
HETATM    6  C   LIG     1      28.352  25.200  31.500  1.00  0.00     0.003 C 
HETATM    7  C   LIG     1      27.987  23.708  31.646  1.00  0.00     0.038 C 
HETATM    8  C   LIG     1      28.278  22.908  30.338  1.00  0.00     0.127 C 
HETATM    9  C   LIG     1      27.944  23.718  28.998  1.00  0.00    -0.010 C 
HETATM   10  C   LIG     1      29.307  24.234  28.413  1.00  0.00     0.018 C 
HETATM   11  C   LIG     1      27.189  23.057  27.760  1.00  0.00     0.000 C 
HETATM   12  C   LIG     1      26.466  24.253  27.066  1.00  0.00     0.006 C 
HETATM   13  C   LIG     1      26.559  25.470  27.988  1.00  0.00     0.006 C 
HETATM   14  C   LIG     1      27.001  24.898  29.323  1.00  0.00     0.003 C 
HETATM   15  C   LIG     1      27.455  25.892  30.441  1.00  0.00     0.024 C 
HETATM   16  C   LIG     1      28.115  27.228  29.980  1.00  0.00     0.123 C 
HETATM   17  C   LIG     1      28.807  27.978  31.167  1.00  0.00     0.037 C 
HETATM   18  C   LIG     1      28.197  27.556  32.521  1.00  0.00    -0.001 C 
HETATM   19  C   LIG     1      28.562  28.457  33.709  1.00  0.00     0.037 C 
ENDROOT
BRANCH  11  20
HETATM   20  C   LIG     1      26.242  21.812  27.956  1.00  0.00    -0.013 C 
HETATM   21  C   LIG     1      24.754  22.059  27.630  1.00  0.00     0.010 C 
BRANCH  20  22
HETATM   22  C   LIG     1      26.771  20.496  27.309  1.00  0.00     0.015 C 
BRANCH  22  23
HETATM   23  C   LIG     1      28.205  20.526  26.751  1.00  0.00     0.110 C 
BRANCH  23  24
HETATM   24  C   LIG     1      29.132  19.721  27.618  1.00  0.00     0.139 C 
HETATM   25  O   LIG     1      29.558  20.208  28.697  1.00  0.00    -0.650 OA
BRANCH  24  26
HETATM   26  O   LIG     1      29.510  18.431  27.256  1.00  0.00    -0.776 OA
HETATM   27  H   LIG     1      29.265  17.629  27.823  1.00  0.00     0.167 HD
ENDBRANCH  24  26
ENDBRANCH  23  24
ENDBRANCH  22  23
ENDBRANCH  20  22
ENDBRANCH  11  20
BRANCH   8  28
HETATM   28  O   LIG     1      27.611  21.683  30.433  1.00  0.00    -0.395 OA
HETATM   29  H   LIG     1      27.685  21.367  31.372  1.00  0.00     0.210 HD
ENDBRANCH   8  28
BRANCH  16  30
HETATM   30  O   LIG     1      27.126  28.056  29.423  1.00  0.00    -0.395 OA
HETATM   31  H   LIG     1      27.589  28.849  29.050  1.00  0.00     0.210 HD
ENDBRANCH  16  30
BRANCH   1  32
HETATM   32  O   LIG     1      28.923  27.645  35.968  1.00  0.00    -0.396 OA
HETATM   33  H   LIG     1      29.435  26.875  35.603  1.00  0.00     0.210 HD
ENDBRANCH   1  32
TORSDOF 8
ENDMDL
MODEL 19
REMARK VINA RESULT:      -3.8      5.035      8.063
REMARK  8 active torsions:
REMARK  status: ('A' for Active; 'I' for Inactive)
REMARK    1  A    between atoms: O_1  and  C_2 
REMARK    2  A    between atoms: C_9  and  O_10 
REMARK    3  A    between atoms: C_13  and  C_14 
REMARK    4  A    between atoms: C_14  and  C_16 
REMARK    5  A    between atoms: C_16  and  C_17 
REMARK    6  A    between atoms: C_17  and  C_18 
REMARK    7  A    between atoms: C_18  and  O_19 
REMARK    8  A    between atoms: C_25  and  O_26 
ROOT
HETATM    1  C   LIG     1      27.586  27.302  35.089  1.00  0.00     0.118 C 
HETATM    2  C   LIG     1      26.680  26.085  34.736  1.00  0.00     0.032 C 
HETATM    3  C   LIG     1      27.256  25.085  33.693  1.00  0.00     0.012 C 
HETATM    4  C   LIG     1      28.294  25.697  32.698  1.00  0.00    -0.036 C 
HETATM    5  C   LIG     1      29.725  25.479  33.278  1.00  0.00     0.016 C 
HETATM    6  C   LIG     1      28.274  25.021  31.264  1.00  0.00     0.003 C 
HETATM    7  C   LIG     1      27.995  23.504  31.218  1.00  0.00     0.038 C 
HETATM    8  C   LIG     1      28.367  22.886  29.835  1.00  0.00     0.127 C 
HETATM    9  C   LIG     1      28.020  23.833  28.591  1.00  0.00    -0.010 C 
HETATM   10  C   LIG     1      29.364  24.491  28.117  1.00  0.00     0.018 C 
HETATM   11  C   LIG     1      27.337  23.285  27.258  1.00  0.00     0.000 C 
HETATM   12  C   LIG     1      26.563  24.514  26.689  1.00  0.00     0.006 C 
HETATM   13  C   LIG     1      26.560  25.614  27.753  1.00  0.00     0.006 C 
HETATM   14  C   LIG     1      27.000  24.909  29.023  1.00  0.00     0.003 C 
HETATM   15  C   LIG     1      27.365  25.784  30.266  1.00  0.00     0.024 C 
HETATM   16  C   LIG     1      27.956  27.202  29.991  1.00  0.00     0.123 C 
HETATM   17  C   LIG     1      28.572  27.840  31.281  1.00  0.00     0.037 C 
HETATM   18  C   LIG     1      27.953  27.223  32.553  1.00  0.00    -0.001 C 
HETATM   19  C   LIG     1      28.233  27.993  33.852  1.00  0.00     0.037 C 
ENDROOT
BRANCH  11  20
HETATM   20  C   LIG     1      26.462  21.975  27.273  1.00  0.00    -0.013 C 
HETATM   21  C   LIG     1      24.974  22.180  27.631  1.00  0.00     0.010 C 
BRANCH  20  22
HETATM   22  C   LIG     1      26.640  21.071  26.016  1.00  0.00     0.015 C 
BRANCH  22  23
HETATM   23  C   LIG     1      25.504  21.096  24.978  1.00  0.00     0.110 C 
BRANCH  23  24
HETATM   24  C   LIG     1      25.691  22.230  24.010  1.00  0.00     0.139 C 
HETATM   25  O   LIG     1      24.686  22.808  23.523  1.00  0.00    -0.650 OA
BRANCH  24  26
HETATM   26  O   LIG     1      26.966  22.669  23.660  1.00  0.00    -0.776 OA
HETATM   27  H   LIG     1      27.264  22.709  22.694  1.00  0.00     0.167 HD
ENDBRANCH  24  26
ENDBRANCH  23  24
ENDBRANCH  22  23
ENDBRANCH  20  22
ENDBRANCH  11  20
BRANCH   8  28
HETATM   28  O   LIG     1      27.771  21.624  29.760  1.00  0.00    -0.395 OA
HETATM   29  H   LIG     1      27.246  21.484  30.593  1.00  0.00     0.210 HD
ENDBRANCH   8  28
BRANCH  16  30
HETATM   30  O   LIG     1      26.935  28.034  29.504  1.00  0.00    -0.395 OA
HETATM   31  H   LIG     1      26.579  28.539  30.280  1.00  0.00     0.210 HD
ENDBRANCH  16  30
BRANCH   1  32
HETATM   32  O   LIG     1      28.583  26.934  36.009  1.00  0.00    -0.396 OA
HETATM   33  H   LIG     1      28.883  26.017  35.770  1.00  0.00     0.210 HD
ENDBRANCH   1  32
TORSDOF 8
ENDMDL
MODEL 20
REMARK VINA RESULT:      -3.8      3.406      6.467
REMARK  8 active torsions:
REMARK  status: ('A' for Active; 'I' for Inactive)
REMARK    1  A    between atoms: O_1  and  C_2 
REMARK    2  A    between atoms: C_9  and  O_10 
REMARK    3  A    between atoms: C_13  and  C_14 
REMARK    4  A    between atoms: C_14  and  C_16 
REMARK    5  A    between atoms: C_16  and  C_17 
REMARK    6  A    between atoms: C_17  and  C_18 
REMARK    7  A    between atoms: C_18  and  O_19 
REMARK    8  A    between atoms: C_25  and  O_26 
ROOT
HETATM    1  C   LIG     1      28.316  28.040  32.365  1.00  0.00     0.118 C 
HETATM    2  C   LIG     1      26.966  27.517  31.791  1.00  0.00     0.032 C 
HETATM    3  C   LIG     1      27.016  26.134  31.080  1.00  0.00     0.012 C 
HETATM    4  C   LIG     1      28.406  25.752  30.480  1.00  0.00    -0.036 C 
HETATM    5  C   LIG     1      29.194  24.920  31.540  1.00  0.00     0.016 C 
HETATM    6  C   LIG     1      28.311  24.856  29.176  1.00  0.00     0.003 C 
HETATM    7  C   LIG     1      27.164  23.824  29.127  1.00  0.00     0.038 C 
HETATM    8  C   LIG     1      27.384  22.764  28.004  1.00  0.00     0.127 C 
HETATM    9  C   LIG     1      28.017  23.366  26.663  1.00  0.00    -0.010 C 
HETATM   10  C   LIG     1      29.540  22.985  26.653  1.00  0.00     0.018 C 
HETATM   11  C   LIG     1      27.486  22.975  25.211  1.00  0.00     0.000 C 
HETATM   12  C   LIG     1      27.817  24.220  24.331  1.00  0.00     0.006 C 
HETATM   13  C   LIG     1      28.250  25.360  25.256  1.00  0.00     0.006 C 
HETATM   14  C   LIG     1      27.832  24.899  26.641  1.00  0.00     0.003 C 
HETATM   15  C   LIG     1      28.353  25.702  27.876  1.00  0.00     0.024 C 
HETATM   16  C   LIG     1      29.746  26.392  27.741  1.00  0.00     0.123 C 
HETATM   17  C   LIG     1      30.294  26.881  29.124  1.00  0.00     0.037 C 
HETATM   18  C   LIG     1      29.145  27.093  30.132  1.00  0.00    -0.001 C 
HETATM   19  C   LIG     1      29.524  27.878  31.396  1.00  0.00     0.037 C 
ENDROOT
BRANCH  11  20
HETATM   20  C   LIG     1      26.012  22.460  24.996  1.00  0.00    -0.013 C 
HETATM   21  C   LIG     1      24.902  23.453  25.401  1.00  0.00     0.010 C 
BRANCH  20  22
HETATM   22  C   LIG     1      25.750  21.832  23.594  1.00  0.00     0.015 C 
BRANCH  22  23
HETATM   23  C   LIG     1      24.586  22.419  22.778  1.00  0.00     0.110 C 
BRANCH  23  24
HETATM   24  C   LIG     1      25.039  22.792  21.394  1.00  0.00     0.139 C 
HETATM   25  O   LIG     1      24.364  22.430  20.397  1.00  0.00    -0.650 OA
BRANCH  24  26
HETATM   26  O   LIG     1      26.188  23.555  21.199  1.00  0.00    -0.776 OA
HETATM   27  H   LIG     1      26.362  24.035  20.326  1.00  0.00     0.167 HD
ENDBRANCH  24  26
ENDBRANCH  23  24
ENDBRANCH  22  23
ENDBRANCH  20  22
ENDBRANCH  11  20
BRANCH   8  28
HETATM   28  O   LIG     1      26.169  22.103  27.802  1.00  0.00    -0.395 OA
HETATM   29  H   LIG     1      25.449  22.788  27.772  1.00  0.00     0.210 HD
ENDBRANCH   8  28
BRANCH  16  30
HETATM   30  O   LIG     1      29.626  27.493  26.876  1.00  0.00    -0.395 OA
HETATM   31  H   LIG     1      29.863  27.174  25.967  1.00  0.00     0.210 HD
ENDBRANCH  16  30
BRANCH   1  32
HETATM   32  O   LIG     1      28.605  27.430  33.598  1.00  0.00    -0.396 OA
HETATM   33  H   LIG     1      29.516  27.724  33.867  1.00  0.00     0.210 HD
ENDBRANCH   1  32
TORSDOF 8
ENDMDL
