MODEL 1
REMARK VINA RESULT:      -7.4      0.000      0.000
REMARK  5 active torsions:
REMARK  status: ('A' for Active; 'I' for Inactive)
REMARK    1  A    between atoms: C_2  and  C_3 
REMARK    2  A    between atoms: C_3  and  C_4 
REMARK    3  A    between atoms: C_4  and  C_5 
REMARK    4  A    between atoms: C_4  and  C_11 
REMARK    5  A    between atoms: C_14  and  O_22 
ROOT
HETATM    1  C   LIG     1      17.119  37.176  22.234  1.00  0.00     0.060 A 
HETATM    2  C   LIG     1      16.832  38.561  22.271  1.00  0.00     0.298 A 
HETATM    3  O   LIG     1      16.037  39.035  23.125  1.00  0.00    -0.259 OA
HETATM    4  C   LIG     1      18.063  36.720  21.286  1.00  0.00     0.091 A 
HETATM    5  C   LIG     1      18.651  37.643  20.390  1.00  0.00     0.032 A 
HETATM    6  C   LIG     1      19.584  37.275  19.395  1.00  0.00     0.017 A 
HETATM    7  C   LIG     1      20.127  38.240  18.541  1.00  0.00     0.001 A 
HETATM    8  C   LIG     1      19.751  39.577  18.661  1.00  0.00     0.003 A 
HETATM    9  C   LIG     1      18.830  39.960  19.636  1.00  0.00     0.038 A 
HETATM   10  C   LIG     1      18.279  39.005  20.498  1.00  0.00     0.092 A 
HETATM   11  O   LIG     1      17.408  39.395  21.417  1.00  0.00    -0.274 OA
ENDROOT
BRANCH   1  12
HETATM   12  C   LIG     1      16.465  36.177  23.199  1.00  0.00     0.067 C 
BRANCH  12  13
HETATM   13  C   LIG     1      16.025  34.865  22.484  1.00  0.00     0.092 C 
BRANCH  13  14
HETATM   14  C   LIG     1      15.217  35.020  21.213  1.00  0.00     0.124 C 
HETATM   15  C   LIG     1      15.382  34.041  20.085  1.00  0.00     0.091 C 
HETATM   16  O   LIG     1      14.338  35.864  21.139  1.00  0.00    -0.298 OA
ENDBRANCH  13  14
ENDBRANCH  12  13
BRANCH  12  17
HETATM   17  C   LIG     1      17.222  36.032  24.518  1.00  0.00    -0.049 A 
HETATM   18  C   LIG     1      17.747  37.195  25.118  1.00  0.00     0.008 A 
HETATM   19  C   LIG     1      18.447  37.123  26.325  1.00  0.00     0.001 A 
HETATM   20  C   LIG     1      18.626  35.893  26.958  1.00  0.00     0.000 A 
HETATM   21  C   LIG     1      18.104  34.733  26.383  1.00  0.00     0.001 A 
HETATM   22  C   LIG     1      17.404  34.800  25.175  1.00  0.00     0.008 A 
ENDBRANCH  12  17
ENDBRANCH   1  12
BRANCH   4  23
HETATM   23  O   LIG     1      18.389  35.358  21.273  1.00  0.00    -0.359 OA
HETATM   24  H   LIG     1      18.349  34.747  22.075  1.00  0.00     0.217 HD
ENDBRANCH   4  23
TORSDOF 5
ENDMDL
MODEL 2
REMARK VINA RESULT:      -6.6      5.982      9.499
REMARK  5 active torsions:
REMARK  status: ('A' for Active; 'I' for Inactive)
REMARK    1  A    between atoms: C_2  and  C_3 
REMARK    2  A    between atoms: C_3  and  C_4 
REMARK    3  A    between atoms: C_4  and  C_5 
REMARK    4  A    between atoms: C_4  and  C_11 
REMARK    5  A    between atoms: C_14  and  O_22 
ROOT
HETATM    1  C   LIG     1      14.821  31.624  15.966  1.00  0.00     0.060 A 
HETATM    2  C   LIG     1      13.409  31.576  16.050  1.00  0.00     0.298 A 
HETATM    3  O   LIG     1      12.767  32.466  16.666  1.00  0.00    -0.259 OA
HETATM    4  C   LIG     1      15.475  30.624  15.212  1.00  0.00     0.091 A 
HETATM    5  C   LIG     1      14.712  29.597  14.608  1.00  0.00     0.032 A 
HETATM    6  C   LIG     1      15.282  28.544  13.858  1.00  0.00     0.017 A 
HETATM    7  C   LIG     1      14.468  27.560  13.287  1.00  0.00     0.001 A 
HETATM    8  C   LIG     1      13.084  27.608  13.455  1.00  0.00     0.003 A 
HETATM    9  C   LIG     1      12.504  28.638  14.194  1.00  0.00     0.038 A 
HETATM   10  C   LIG     1      13.307  29.630  14.770  1.00  0.00     0.092 A 
HETATM   11  O   LIG     1      12.730  30.599  15.465  1.00  0.00    -0.274 OA
ENDROOT
BRANCH   1  12
HETATM   12  C   LIG     1      15.645  32.732  16.638  1.00  0.00     0.067 C 
BRANCH  12  13
HETATM   13  C   LIG     1      15.646  34.052  15.813  1.00  0.00     0.092 C 
BRANCH  13  14
HETATM   14  C   LIG     1      16.962  34.461  15.183  1.00  0.00     0.124 C 
HETATM   15  C   LIG     1      17.914  33.419  14.670  1.00  0.00     0.091 C 
HETATM   16  O   LIG     1      17.206  35.639  14.974  1.00  0.00    -0.298 OA
ENDBRANCH  13  14
ENDBRANCH  12  13
BRANCH  12  17
HETATM   17  C   LIG     1      15.384  32.849  18.139  1.00  0.00    -0.049 A 
HETATM   18  C   LIG     1      15.519  34.115  18.744  1.00  0.00     0.008 A 
HETATM   19  C   LIG     1      15.291  34.283  20.112  1.00  0.00     0.001 A 
HETATM   20  C   LIG     1      14.917  33.192  20.897  1.00  0.00     0.000 A 
HETATM   21  C   LIG     1      14.769  31.933  20.314  1.00  0.00     0.001 A 
HETATM   22  C   LIG     1      14.996  31.761  18.945  1.00  0.00     0.008 A 
ENDBRANCH  12  17
ENDBRANCH   1  12
BRANCH   4  23
HETATM   23  O   LIG     1      16.868  30.690  15.084  1.00  0.00    -0.359 OA
HETATM   24  H   LIG     1      17.426  31.512  15.262  1.00  0.00     0.217 HD
ENDBRANCH   4  23
TORSDOF 5
ENDMDL
MODEL 3
REMARK VINA RESULT:      -6.1      1.352      5.625
REMARK  5 active torsions:
REMARK  status: ('A' for Active; 'I' for Inactive)
REMARK    1  A    between atoms: C_2  and  C_3 
REMARK    2  A    between atoms: C_3  and  C_4 
REMARK    3  A    between atoms: C_4  and  C_5 
REMARK    4  A    between atoms: C_4  and  C_11 
REMARK    5  A    between atoms: C_14  and  O_22 
ROOT
HETATM    1  C   LIG     1      17.104  36.764  22.096  1.00  0.00     0.060 A 
HETATM    2  C   LIG     1      16.817  38.030  22.660  1.00  0.00     0.298 A 
HETATM    3  O   LIG     1      16.442  38.990  21.937  1.00  0.00    -0.259 OA
HETATM    4  C   LIG     1      17.467  35.716  22.971  1.00  0.00     0.091 A 
HETATM    5  C   LIG     1      17.569  35.971  24.359  1.00  0.00     0.032 A 
HETATM    6  C   LIG     1      17.948  34.992  25.303  1.00  0.00     0.017 A 
HETATM    7  C   LIG     1      18.030  35.313  26.662  1.00  0.00     0.001 A 
HETATM    8  C   LIG     1      17.741  36.606  27.098  1.00  0.00     0.003 A 
HETATM    9  C   LIG     1      17.367  37.586  26.180  1.00  0.00     0.038 A 
HETATM   10  C   LIG     1      17.280  37.279  24.817  1.00  0.00     0.092 A 
HETATM   11  O   LIG     1      16.920  38.228  23.966  1.00  0.00    -0.274 OA
ENDROOT
BRANCH   1  12
HETATM   12  C   LIG     1      17.006  36.498  20.587  1.00  0.00     0.067 C 
BRANCH  12  13
HETATM   13  C   LIG     1      18.375  36.670  19.865  1.00  0.00     0.092 C 
BRANCH  13  14
HETATM   14  C   LIG     1      18.699  38.054  19.341  1.00  0.00     0.124 C 
HETATM   15  C   LIG     1      19.370  39.063  20.227  1.00  0.00     0.091 C 
HETATM   16  O   LIG     1      18.532  38.321  18.161  1.00  0.00    -0.298 OA
ENDBRANCH  13  14
ENDBRANCH  12  13
BRANCH  12  17
HETATM   17  C   LIG     1      16.193  35.249  20.249  1.00  0.00    -0.049 A 
HETATM   18  C   LIG     1      16.106  34.854  18.898  1.00  0.00     0.008 A 
HETATM   19  C   LIG     1      15.378  33.720  18.530  1.00  0.00     0.001 A 
HETATM   20  C   LIG     1      14.731  32.958  19.504  1.00  0.00     0.000 A 
HETATM   21  C   LIG     1      14.814  33.328  20.846  1.00  0.00     0.001 A 
HETATM   22  C   LIG     1      15.542  34.463  21.219  1.00  0.00     0.008 A 
ENDBRANCH  12  17
ENDBRANCH   1  12
BRANCH   4  23
HETATM   23  O   LIG     1      17.706  34.447  22.427  1.00  0.00    -0.359 OA
HETATM   24  H   LIG     1      18.544  33.906  22.572  1.00  0.00     0.217 HD
ENDBRANCH   4  23
TORSDOF 5
ENDMDL
MODEL 4
REMARK VINA RESULT:      -6.1     15.491     17.605
REMARK  5 active torsions:
REMARK  status: ('A' for Active; 'I' for Inactive)
REMARK    1  A    between atoms: C_2  and  C_3 
REMARK    2  A    between atoms: C_3  and  C_4 
REMARK    3  A    between atoms: C_4  and  C_5 
REMARK    4  A    between atoms: C_4  and  C_11 
REMARK    5  A    between atoms: C_14  and  O_22 
ROOT
HETATM    1  C   LIG     1      25.251  21.935  19.663  1.00  0.00     0.060 A 
HETATM    2  C   LIG     1      26.331  21.286  19.019  1.00  0.00     0.298 A 
HETATM    3  O   LIG     1      27.522  21.539  19.339  1.00  0.00    -0.259 OA
HETATM    4  C   LIG     1      23.939  21.563  19.293  1.00  0.00     0.091 A 
HETATM    5  C   LIG     1      23.748  20.597  18.277  1.00  0.00     0.032 A 
HETATM    6  C   LIG     1      22.476  20.182  17.827  1.00  0.00     0.017 A 
HETATM    7  C   LIG     1      22.360  19.222  16.818  1.00  0.00     0.001 A 
HETATM    8  C   LIG     1      23.502  18.664  16.242  1.00  0.00     0.003 A 
HETATM    9  C   LIG     1      24.766  19.063  16.672  1.00  0.00     0.038 A 
HETATM   10  C   LIG     1      24.898  20.023  17.683  1.00  0.00     0.092 A 
HETATM   11  O   LIG     1      26.111  20.382  18.075  1.00  0.00    -0.274 OA
ENDROOT
BRANCH   1  12
HETATM   12  C   LIG     1      25.464  22.995  20.753  1.00  0.00     0.067 C 
BRANCH  12  13
HETATM   13  C   LIG     1      25.814  22.363  22.132  1.00  0.00     0.092 C 
BRANCH  13  14
HETATM   14  C   LIG     1      24.699  22.303  23.157  1.00  0.00     0.124 C 
HETATM   15  C   LIG     1      24.931  22.785  24.560  1.00  0.00     0.091 C 
HETATM   16  O   LIG     1      23.571  21.979  22.822  1.00  0.00    -0.298 OA
ENDBRANCH  13  14
ENDBRANCH  12  13
BRANCH  12  17
HETATM   17  C   LIG     1      26.321  24.172  20.288  1.00  0.00    -0.049 A 
HETATM   18  C   LIG     1      27.408  24.566  21.095  1.00  0.00     0.008 A 
HETATM   19  C   LIG     1      28.227  25.634  20.720  1.00  0.00     0.001 A 
HETATM   20  C   LIG     1      27.979  26.321  19.531  1.00  0.00     0.000 A 
HETATM   21  C   LIG     1      26.914  25.938  18.715  1.00  0.00     0.001 A 
HETATM   22  C   LIG     1      26.092  24.869  19.087  1.00  0.00     0.008 A 
ENDBRANCH  12  17
ENDBRANCH   1  12
BRANCH   4  23
HETATM   23  O   LIG     1      22.864  22.166  19.958  1.00  0.00    -0.359 OA
HETATM   24  H   LIG     1      22.872  23.099  20.342  1.00  0.00     0.217 HD
ENDBRANCH   4  23
TORSDOF 5
ENDMDL
MODEL 5
REMARK VINA RESULT:      -6.0     15.063     16.539
REMARK  5 active torsions:
REMARK  status: ('A' for Active; 'I' for Inactive)
REMARK    1  A    between atoms: C_2  and  C_3 
REMARK    2  A    between atoms: C_3  and  C_4 
REMARK    3  A    between atoms: C_4  and  C_5 
REMARK    4  A    between atoms: C_4  and  C_11 
REMARK    5  A    between atoms: C_14  and  O_22 
ROOT
HETATM    1  C   LIG     1      26.526  23.765  18.654  1.00  0.00     0.060 A 
HETATM    2  C   LIG     1      27.503  23.071  17.901  1.00  0.00     0.298 A 
HETATM    3  O   LIG     1      27.360  21.851  17.624  1.00  0.00    -0.259 OA
HETATM    4  C   LIG     1      26.723  25.146  18.882  1.00  0.00     0.091 A 
HETATM    5  C   LIG     1      27.892  25.773  18.391  1.00  0.00     0.032 A 
HETATM    6  C   LIG     1      28.183  27.140  18.591  1.00  0.00     0.017 A 
HETATM    7  C   LIG     1      29.360  27.697  18.079  1.00  0.00     0.001 A 
HETATM    8  C   LIG     1      30.260  26.905  17.366  1.00  0.00     0.003 A 
HETATM    9  C   LIG     1      29.990  25.553  17.160  1.00  0.00     0.038 A 
HETATM   10  C   LIG     1      28.817  24.983  17.667  1.00  0.00     0.092 A 
HETATM   11  O   LIG     1      28.583  23.696  17.454  1.00  0.00    -0.274 OA
ENDROOT
BRANCH   1  12
HETATM   12  C   LIG     1      25.267  23.075  19.197  1.00  0.00     0.067 C 
BRANCH  12  13
HETATM   13  C   LIG     1      24.601  22.144  18.143  1.00  0.00     0.092 C 
BRANCH  13  14
HETATM   14  C   LIG     1      23.299  21.482  18.545  1.00  0.00     0.124 C 
HETATM   15  C   LIG     1      23.182  19.984  18.562  1.00  0.00     0.091 C 
HETATM   16  O   LIG     1      22.373  22.151  18.975  1.00  0.00    -0.298 OA
ENDBRANCH  13  14
ENDBRANCH  12  13
BRANCH  12  17
HETATM   17  C   LIG     1      25.450  22.514  20.607  1.00  0.00    -0.049 A 
HETATM   18  C   LIG     1      24.620  23.007  21.635  1.00  0.00     0.008 A 
HETATM   19  C   LIG     1      24.741  22.530  22.942  1.00  0.00     0.001 A 
HETATM   20  C   LIG     1      25.685  21.548  23.244  1.00  0.00     0.000 A 
HETATM   21  C   LIG     1      26.507  21.041  22.237  1.00  0.00     0.001 A 
HETATM   22  C   LIG     1      26.390  21.516  20.927  1.00  0.00     0.008 A 
ENDBRANCH  12  17
ENDBRANCH   1  12
BRANCH   4  23
HETATM   23  O   LIG     1      25.739  25.851  19.586  1.00  0.00    -0.359 OA
HETATM   24  H   LIG     1      25.853  26.234  20.512  1.00  0.00     0.217 HD
ENDBRANCH   4  23
TORSDOF 5
ENDMDL
MODEL 6
REMARK VINA RESULT:      -5.7      5.168      9.200
REMARK  5 active torsions:
REMARK  status: ('A' for Active; 'I' for Inactive)
REMARK    1  A    between atoms: C_2  and  C_3 
REMARK    2  A    between atoms: C_3  and  C_4 
REMARK    3  A    between atoms: C_4  and  C_5 
REMARK    4  A    between atoms: C_4  and  C_11 
REMARK    5  A    between atoms: C_14  and  O_22 
ROOT
HETATM    1  C   LIG     1      15.241  32.695  17.212  1.00  0.00     0.060 A 
HETATM    2  C   LIG     1      14.717  31.755  18.132  1.00  0.00     0.298 A 
HETATM    3  O   LIG     1      14.371  30.605  17.754  1.00  0.00    -0.259 OA
HETATM    4  C   LIG     1      15.663  33.947  17.713  1.00  0.00     0.091 A 
HETATM    5  C   LIG     1      15.512  34.234  19.090  1.00  0.00     0.032 A 
HETATM    6  C   LIG     1      15.882  35.465  19.673  1.00  0.00     0.017 A 
HETATM    7  C   LIG     1      15.705  35.682  21.044  1.00  0.00     0.001 A 
HETATM    8  C   LIG     1      15.158  34.683  21.849  1.00  0.00     0.003 A 
HETATM    9  C   LIG     1      14.785  33.461  21.291  1.00  0.00     0.038 A 
HETATM   10  C   LIG     1      14.957  33.230  19.921  1.00  0.00     0.092 A 
HETATM   11  O   LIG     1      14.597  32.060  19.416  1.00  0.00    -0.274 OA
ENDROOT
BRANCH   1  12
HETATM   12  C   LIG     1      15.387  32.384  15.716  1.00  0.00     0.067 C 
BRANCH  12  13
HETATM   13  C   LIG     1      16.873  32.403  15.250  1.00  0.00     0.092 C 
BRANCH  13  14
HETATM   14  C   LIG     1      17.175  33.145  13.965  1.00  0.00     0.124 C 
HETATM   15  C   LIG     1      18.555  33.675  13.700  1.00  0.00     0.091 C 
HETATM   16  O   LIG     1      16.336  33.213  13.080  1.00  0.00    -0.298 OA
ENDBRANCH  13  14
ENDBRANCH  12  13
BRANCH  12  17
HETATM   17  C   LIG     1      14.529  31.205  15.260  1.00  0.00    -0.049 A 
HETATM   18  C   LIG     1      15.153  30.160  14.550  1.00  0.00     0.008 A 
HETATM   19  C   LIG     1      14.418  29.056  14.110  1.00  0.00     0.001 A 
HETATM   20  C   LIG     1      13.051  28.974  14.377  1.00  0.00     0.000 A 
HETATM   21  C   LIG     1      12.419  29.995  15.087  1.00  0.00     0.001 A 
HETATM   22  C   LIG     1      13.150  31.102  15.530  1.00  0.00     0.008 A 
ENDBRANCH  12  17
ENDBRANCH   1  12
BRANCH   4  23
HETATM   23  O   LIG     1      16.226  34.866  16.818  1.00  0.00    -0.359 OA
HETATM   24  H   LIG     1      17.177  35.200  16.856  1.00  0.00     0.217 HD
ENDBRANCH   4  23
TORSDOF 5
ENDMDL
MODEL 7
REMARK VINA RESULT:      -5.6      1.366      5.503
REMARK  5 active torsions:
REMARK  status: ('A' for Active; 'I' for Inactive)
REMARK    1  A    between atoms: C_2  and  C_3 
REMARK    2  A    between atoms: C_3  and  C_4 
REMARK    3  A    between atoms: C_4  and  C_5 
REMARK    4  A    between atoms: C_4  and  C_11 
REMARK    5  A    between atoms: C_14  and  O_22 
ROOT
HETATM    1  C   LIG     1      17.533  36.675  21.984  1.00  0.00     0.060 A 
HETATM    2  C   LIG     1      17.472  37.981  22.526  1.00  0.00     0.298 A 
HETATM    3  O   LIG     1      17.403  38.990  21.776  1.00  0.00    -0.259 OA
HETATM    4  C   LIG     1      17.553  35.584  22.883  1.00  0.00     0.091 A 
HETATM    5  C   LIG     1      17.552  35.830  24.276  1.00  0.00     0.032 A 
HETATM    6  C   LIG     1      17.595  34.805  25.246  1.00  0.00     0.017 A 
HETATM    7  C   LIG     1      17.593  35.120  26.609  1.00  0.00     0.001 A 
HETATM    8  C   LIG     1      17.550  36.450  27.024  1.00  0.00     0.003 A 
HETATM    9  C   LIG     1      17.509  37.476  26.081  1.00  0.00     0.038 A 
HETATM   10  C   LIG     1      17.511  37.176  24.713  1.00  0.00     0.092 A 
HETATM   11  O   LIG     1      17.469  38.169  23.838  1.00  0.00    -0.274 OA
ENDROOT
BRANCH   1  12
HETATM   12  C   LIG     1      17.549  36.415  20.471  1.00  0.00     0.067 C 
BRANCH  12  13
HETATM   13  C   LIG     1      16.121  36.188  19.894  1.00  0.00     0.092 C 
BRANCH  13  14
HETATM   14  C   LIG     1      15.862  34.856  19.221  1.00  0.00     0.124 C 
HETATM   15  C   LIG     1      15.513  33.647  20.041  1.00  0.00     0.091 C 
HETATM   16  O   LIG     1      15.811  34.778  18.004  1.00  0.00    -0.298 OA
ENDBRANCH  13  14
ENDBRANCH  12  13
BRANCH  12  17
HETATM   17  C   LIG     1      18.466  37.369  19.707  1.00  0.00    -0.049 A 
HETATM   18  C   LIG     1      19.824  37.434  20.081  1.00  0.00     0.008 A 
HETATM   19  C   LIG     1      20.709  38.287  19.418  1.00  0.00     0.001 A 
HETATM   20  C   LIG     1      20.257  39.082  18.365  1.00  0.00     0.000 A 
HETATM   21  C   LIG     1      18.918  39.023  17.973  1.00  0.00     0.001 A 
HETATM   22  C   LIG     1      18.029  38.171  18.635  1.00  0.00     0.008 A 
ENDBRANCH  12  17
ENDBRANCH   1  12
BRANCH   4  23
HETATM   23  O   LIG     1      17.565  34.287  22.355  1.00  0.00    -0.359 OA
HETATM   24  H   LIG     1      18.173  33.970  21.615  1.00  0.00     0.217 HD
ENDBRANCH   4  23
TORSDOF 5
ENDMDL
MODEL 8
REMARK VINA RESULT:      -5.6      0.665      2.281
REMARK  5 active torsions:
REMARK  status: ('A' for Active; 'I' for Inactive)
REMARK    1  A    between atoms: C_2  and  C_3 
REMARK    2  A    between atoms: C_3  and  C_4 
REMARK    3  A    between atoms: C_4  and  C_5 
REMARK    4  A    between atoms: C_4  and  C_11 
REMARK    5  A    between atoms: C_14  and  O_22 
ROOT
HETATM    1  C   LIG     1      17.322  36.660  22.015  1.00  0.00     0.060 A 
HETATM    2  C   LIG     1      17.994  35.721  21.197  1.00  0.00     0.298 A 
HETATM    3  O   LIG     1      17.876  34.485  21.400  1.00  0.00    -0.259 OA
HETATM    4  C   LIG     1      17.454  38.031  21.697  1.00  0.00     0.091 A 
HETATM    5  C   LIG     1      18.274  38.418  20.611  1.00  0.00     0.032 A 
HETATM    6  C   LIG     1      18.483  39.763  20.236  1.00  0.00     0.017 A 
HETATM    7  C   LIG     1      19.307  40.076  19.151  1.00  0.00     0.001 A 
HETATM    8  C   LIG     1      19.934  39.062  18.428  1.00  0.00     0.003 A 
HETATM    9  C   LIG     1      19.741  37.728  18.785  1.00  0.00     0.038 A 
HETATM   10  C   LIG     1      18.918  37.400  19.869  1.00  0.00     0.092 A 
HETATM   11  O   LIG     1      18.749  36.125  20.185  1.00  0.00    -0.274 OA
ENDROOT
BRANCH   1  12
HETATM   12  C   LIG     1      16.447  36.234  23.202  1.00  0.00     0.067 C 
BRANCH  12  13
HETATM   13  C   LIG     1      15.526  35.028  22.856  1.00  0.00     0.092 C 
BRANCH  13  14
HETATM   14  C   LIG     1      14.938  34.998  21.460  1.00  0.00     0.124 C 
HETATM   15  C   LIG     1      14.914  33.718  20.674  1.00  0.00     0.091 C 
HETATM   16  O   LIG     1      14.368  35.979  21.009  1.00  0.00    -0.298 OA
ENDBRANCH  13  14
ENDBRANCH  12  13
BRANCH  12  17
HETATM   17  C   LIG     1      17.214  36.169  24.522  1.00  0.00    -0.049 A 
HETATM   18  C   LIG     1      17.432  34.905  25.106  1.00  0.00     0.008 A 
HETATM   19  C   LIG     1      18.128  34.783  26.311  1.00  0.00     0.001 A 
HETATM   20  C   LIG     1      18.625  35.920  26.949  1.00  0.00     0.000 A 
HETATM   21  C   LIG     1      18.428  37.180  26.380  1.00  0.00     0.001 A 
HETATM   22  C   LIG     1      17.731  37.305  25.174  1.00  0.00     0.008 A 
ENDBRANCH  12  17
ENDBRANCH   1  12
BRANCH   4  23
HETATM   23  O   LIG     1      16.754  38.964  22.472  1.00  0.00    -0.359 OA
HETATM   24  H   LIG     1      16.015  39.559  22.132  1.00  0.00     0.217 HD
ENDBRANCH   4  23
TORSDOF 5
ENDMDL
MODEL 9
REMARK VINA RESULT:      -5.5     15.416     17.093
REMARK  5 active torsions:
REMARK  status: ('A' for Active; 'I' for Inactive)
REMARK    1  A    between atoms: C_2  and  C_3 
REMARK    2  A    between atoms: C_3  and  C_4 
REMARK    3  A    between atoms: C_4  and  C_5 
REMARK    4  A    between atoms: C_4  and  C_11 
REMARK    5  A    between atoms: C_14  and  O_22 
ROOT
HETATM    1  C   LIG     1      27.240  23.142  19.354  1.00  0.00     0.060 A 
HETATM    2  C   LIG     1      27.638  22.618  18.101  1.00  0.00     0.298 A 
HETATM    3  O   LIG     1      27.449  21.406  17.818  1.00  0.00    -0.259 OA
HETATM    4  C   LIG     1      27.430  24.524  19.585  1.00  0.00     0.091 A 
HETATM    5  C   LIG     1      28.040  25.319  18.586  1.00  0.00     0.032 A 
HETATM    6  C   LIG     1      28.292  26.700  18.739  1.00  0.00     0.017 A 
HETATM    7  C   LIG     1      28.900  27.427  17.711  1.00  0.00     0.001 A 
HETATM    8  C   LIG     1      29.266  26.795  16.523  1.00  0.00     0.003 A 
HETATM    9  C   LIG     1      29.028  25.431  16.355  1.00  0.00     0.038 A 
HETATM   10  C   LIG     1      28.420  24.691  17.376  1.00  0.00     0.092 A 
HETATM   11  O   LIG     1      28.201  23.398  17.189  1.00  0.00    -0.274 OA
ENDROOT
BRANCH   1  12
HETATM   12  C   LIG     1      26.593  22.271  20.440  1.00  0.00     0.067 C 
BRANCH  12  13
HETATM   13  C   LIG     1      27.326  22.390  21.809  1.00  0.00     0.092 C 
BRANCH  13  14
HETATM   14  C   LIG     1      28.604  21.593  21.969  1.00  0.00     0.124 C 
HETATM   15  C   LIG     1      28.807  20.320  21.199  1.00  0.00     0.091 C 
HETATM   16  O   LIG     1      29.530  22.039  22.628  1.00  0.00    -0.298 OA
ENDBRANCH  13  14
ENDBRANCH  12  13
BRANCH  12  17
HETATM   17  C   LIG     1      25.068  22.363  20.455  1.00  0.00    -0.049 A 
HETATM   18  C   LIG     1      24.444  22.909  21.595  1.00  0.00     0.008 A 
HETATM   19  C   LIG     1      23.053  23.020  21.664  1.00  0.00     0.001 A 
HETATM   20  C   LIG     1      22.263  22.596  20.595  1.00  0.00     0.000 A 
HETATM   21  C   LIG     1      22.865  22.062  19.455  1.00  0.00     0.001 A 
HETATM   22  C   LIG     1      24.257  21.949  19.381  1.00  0.00     0.008 A 
ENDBRANCH  12  17
ENDBRANCH   1  12
BRANCH   4  23
HETATM   23  O   LIG     1      26.997  25.061  20.804  1.00  0.00    -0.359 OA
HETATM   24  H   LIG     1      26.429  25.889  20.901  1.00  0.00     0.217 HD
ENDBRANCH   4  23
TORSDOF 5
ENDMDL
MODEL 10
REMARK VINA RESULT:      -5.5      1.831      5.677
REMARK  5 active torsions:
REMARK  status: ('A' for Active; 'I' for Inactive)
REMARK    1  A    between atoms: C_2  and  C_3 
REMARK    2  A    between atoms: C_3  and  C_4 
REMARK    3  A    between atoms: C_4  and  C_5 
REMARK    4  A    between atoms: C_4  and  C_11 
REMARK    5  A    between atoms: C_14  and  O_22 
ROOT
HETATM    1  C   LIG     1      16.270  35.424  20.905  1.00  0.00     0.060 A 
HETATM    2  C   LIG     1      15.685  34.352  21.618  1.00  0.00     0.298 A 
HETATM    3  O   LIG     1      15.622  34.369  22.876  1.00  0.00    -0.259 OA
HETATM    4  C   LIG     1      16.258  35.366  19.493  1.00  0.00     0.091 A 
HETATM    5  C   LIG     1      15.705  34.235  18.847  1.00  0.00     0.032 A 
HETATM    6  C   LIG     1      15.671  34.081  17.444  1.00  0.00     0.017 A 
HETATM    7  C   LIG     1      15.109  32.935  16.871  1.00  0.00     0.001 A 
HETATM    8  C   LIG     1      14.577  31.932  17.681  1.00  0.00     0.003 A 
HETATM    9  C   LIG     1      14.604  32.066  19.068  1.00  0.00     0.038 A 
HETATM   10  C   LIG     1      15.163  33.208  19.656  1.00  0.00     0.092 A 
HETATM   11  O   LIG     1      15.172  33.312  20.976  1.00  0.00    -0.274 OA
ENDROOT
BRANCH   1  12
HETATM   12  C   LIG     1      16.884  36.642  21.612  1.00  0.00     0.067 C 
BRANCH  12  13
HETATM   13  C   LIG     1      17.083  36.403  23.137  1.00  0.00     0.092 C 
BRANCH  13  14
HETATM   14  C   LIG     1      16.576  37.485  24.068  1.00  0.00     0.124 C 
HETATM   15  C   LIG     1      17.399  37.917  25.248  1.00  0.00     0.091 C 
HETATM   16  O   LIG     1      15.556  38.100  23.802  1.00  0.00    -0.298 OA
ENDBRANCH  13  14
ENDBRANCH  12  13
BRANCH  12  17
HETATM   17  C   LIG     1      18.053  37.256  20.844  1.00  0.00    -0.049 A 
HETATM   18  C   LIG     1      18.201  38.658  20.862  1.00  0.00     0.008 A 
HETATM   19  C   LIG     1      19.252  39.276  20.180  1.00  0.00     0.001 A 
HETATM   20  C   LIG     1      20.178  38.504  19.476  1.00  0.00     0.000 A 
HETATM   21  C   LIG     1      20.053  37.114  19.456  1.00  0.00     0.001 A 
HETATM   22  C   LIG     1      19.002  36.492  20.137  1.00  0.00     0.008 A 
ENDBRANCH  12  17
ENDBRANCH   1  12
BRANCH   4  23
HETATM   23  O   LIG     1      16.793  36.445  18.778  1.00  0.00    -0.359 OA
HETATM   24  H   LIG     1      17.728  36.806  18.890  1.00  0.00     0.217 HD
ENDBRANCH   4  23
TORSDOF 5
ENDMDL
MODEL 11
REMARK VINA RESULT:      -5.5     15.538     18.066
REMARK  5 active torsions:
REMARK  status: ('A' for Active; 'I' for Inactive)
REMARK    1  A    between atoms: C_2  and  C_3 
REMARK    2  A    between atoms: C_3  and  C_4 
REMARK    3  A    between atoms: C_4  and  C_5 
REMARK    4  A    between atoms: C_4  and  C_11 
REMARK    5  A    between atoms: C_14  and  O_22 
ROOT
HETATM    1  C   LIG     1      25.724  22.187  20.480  1.00  0.00     0.060 A 
HETATM    2  C   LIG     1      26.853  21.385  20.770  1.00  0.00     0.298 A 
HETATM    3  O   LIG     1      27.585  20.941  19.847  1.00  0.00    -0.259 OA
HETATM    4  C   LIG     1      24.977  22.698  21.566  1.00  0.00     0.091 A 
HETATM    5  C   LIG     1      25.353  22.363  22.888  1.00  0.00     0.032 A 
HETATM    6  C   LIG     1      24.652  22.808  24.031  1.00  0.00     0.017 A 
HETATM    7  C   LIG     1      25.079  22.438  25.311  1.00  0.00     0.001 A 
HETATM    8  C   LIG     1      26.200  21.624  25.471  1.00  0.00     0.003 A 
HETATM    9  C   LIG     1      26.902  21.174  24.354  1.00  0.00     0.038 A 
HETATM   10  C   LIG     1      26.487  21.536  23.067  1.00  0.00     0.092 A 
HETATM   11  O   LIG     1      27.175  21.098  22.023  1.00  0.00    -0.274 OA
ENDROOT
BRANCH   1  12
HETATM   12  C   LIG     1      25.312  22.534  19.042  1.00  0.00     0.067 C 
BRANCH  12  13
HETATM   13  C   LIG     1      26.452  23.243  18.254  1.00  0.00     0.092 C 
BRANCH  13  14
HETATM   14  C   LIG     1      27.050  24.482  18.887  1.00  0.00     0.124 C 
HETATM   15  C   LIG     1      26.184  25.670  19.197  1.00  0.00     0.091 C 
HETATM   16  O   LIG     1      28.211  24.483  19.265  1.00  0.00    -0.298 OA
ENDBRANCH  13  14
ENDBRANCH  12  13
BRANCH  12  17
HETATM   17  C   LIG     1      24.580  21.394  18.335  1.00  0.00    -0.049 A 
HETATM   18  C   LIG     1      23.185  21.288  18.507  1.00  0.00     0.008 A 
HETATM   19  C   LIG     1      22.462  20.267  17.883  1.00  0.00     0.001 A 
HETATM   20  C   LIG     1      23.119  19.341  17.072  1.00  0.00     0.000 A 
HETATM   21  C   LIG     1      24.498  19.437  16.882  1.00  0.00     0.001 A 
HETATM   22  C   LIG     1      25.225  20.457  17.505  1.00  0.00     0.008 A 
ENDBRANCH  12  17
ENDBRANCH   1  12
BRANCH   4  23
HETATM   23  O   LIG     1      23.886  23.532  21.290  1.00  0.00    -0.359 OA
HETATM   24  H   LIG     1      23.002  23.222  20.916  1.00  0.00     0.217 HD
ENDBRANCH   4  23
TORSDOF 5
ENDMDL
MODEL 12
REMARK VINA RESULT:      -5.4     15.489     17.065
REMARK  5 active torsions:
REMARK  status: ('A' for Active; 'I' for Inactive)
REMARK    1  A    between atoms: C_2  and  C_3 
REMARK    2  A    between atoms: C_3  and  C_4 
REMARK    3  A    between atoms: C_4  and  C_5 
REMARK    4  A    between atoms: C_4  and  C_11 
REMARK    5  A    between atoms: C_14  and  O_22 
ROOT
HETATM    1  C   LIG     1      27.401  23.492  19.690  1.00  0.00     0.060 A 
HETATM    2  C   LIG     1      27.663  24.694  20.388  1.00  0.00     0.298 A 
HETATM    3  O   LIG     1      27.418  24.794  21.619  1.00  0.00    -0.259 OA
HETATM    4  C   LIG     1      27.752  23.430  18.322  1.00  0.00     0.091 A 
HETATM    5  C   LIG     1      28.307  24.569  17.693  1.00  0.00     0.032 A 
HETATM    6  C   LIG     1      28.664  24.607  16.327  1.00  0.00     0.017 A 
HETATM    7  C   LIG     1      29.208  25.768  15.769  1.00  0.00     0.001 A 
HETATM    8  C   LIG     1      29.402  26.903  16.556  1.00  0.00     0.003 A 
HETATM    9  C   LIG     1      29.054  26.885  17.906  1.00  0.00     0.038 A 
HETATM   10  C   LIG     1      28.508  25.730  18.478  1.00  0.00     0.092 A 
HETATM   11  O   LIG     1      28.189  25.738  19.764  1.00  0.00    -0.274 OA
ENDROOT
BRANCH   1  12
HETATM   12  C   LIG     1      26.784  22.264  20.374  1.00  0.00     0.067 C 
BRANCH  12  13
HETATM   13  C   LIG     1      27.630  21.773  21.585  1.00  0.00     0.092 C 
BRANCH  13  14
HETATM   14  C   LIG     1      29.088  21.460  21.316  1.00  0.00     0.124 C 
HETATM   15  C   LIG     1      30.170  22.166  22.081  1.00  0.00     0.091 C 
HETATM   16  O   LIG     1      29.394  20.546  20.566  1.00  0.00    -0.298 OA
ENDBRANCH  13  14
ENDBRANCH  12  13
BRANCH  12  17
HETATM   17  C   LIG     1      25.275  22.387  20.582  1.00  0.00    -0.049 A 
HETATM   18  C   LIG     1      24.420  21.943  19.553  1.00  0.00     0.008 A 
HETATM   19  C   LIG     1      23.033  22.029  19.688  1.00  0.00     0.001 A 
HETATM   20  C   LIG     1      22.475  22.552  20.855  1.00  0.00     0.000 A 
HETATM   21  C   LIG     1      23.306  22.987  21.889  1.00  0.00     0.001 A 
HETATM   22  C   LIG     1      24.695  22.902  21.757  1.00  0.00     0.008 A 
ENDBRANCH  12  17
ENDBRANCH   1  12
BRANCH   4  23
HETATM   23  O   LIG     1      27.541  22.228  17.634  1.00  0.00    -0.359 OA
HETATM   24  H   LIG     1      27.586  21.310  18.049  1.00  0.00     0.217 HD
ENDBRANCH   4  23
TORSDOF 5
ENDMDL
MODEL 13
REMARK VINA RESULT:      -5.4     15.732     17.647
REMARK  5 active torsions:
REMARK  status: ('A' for Active; 'I' for Inactive)
REMARK    1  A    between atoms: C_2  and  C_3 
REMARK    2  A    between atoms: C_3  and  C_4 
REMARK    3  A    between atoms: C_4  and  C_5 
REMARK    4  A    between atoms: C_4  and  C_11 
REMARK    5  A    between atoms: C_14  and  O_22 
ROOT
HETATM    1  C   LIG     1      25.530  22.157  19.891  1.00  0.00     0.060 A 
HETATM    2  C   LIG     1      25.472  23.277  19.027  1.00  0.00     0.298 A 
HETATM    3  O   LIG     1      24.747  23.263  17.997  1.00  0.00    -0.259 OA
HETATM    4  C   LIG     1      26.320  22.261  21.058  1.00  0.00     0.091 A 
HETATM    5  C   LIG     1      27.050  23.448  21.302  1.00  0.00     0.032 A 
HETATM    6  C   LIG     1      27.883  23.631  22.427  1.00  0.00     0.017 A 
HETATM    7  C   LIG     1      28.577  24.831  22.607  1.00  0.00     0.001 A 
HETATM    8  C   LIG     1      28.456  25.861  21.674  1.00  0.00     0.003 A 
HETATM    9  C   LIG     1      27.640  25.698  20.555  1.00  0.00     0.038 A 
HETATM   10  C   LIG     1      26.938  24.502  20.363  1.00  0.00     0.092 A 
HETATM   11  O   LIG     1      26.167  24.373  19.293  1.00  0.00    -0.274 OA
ENDROOT
BRANCH   1  12
HETATM   12  C   LIG     1      24.748  20.866  19.613  1.00  0.00     0.067 C 
BRANCH  12  13
HETATM   13  C   LIG     1      23.235  21.003  19.957  1.00  0.00     0.092 C 
BRANCH  13  14
HETATM   14  C   LIG     1      22.894  21.665  21.276  1.00  0.00     0.124 C 
HETATM   15  C   LIG     1      22.067  22.918  21.305  1.00  0.00     0.091 C 
HETATM   16  O   LIG     1      23.181  21.122  22.331  1.00  0.00    -0.298 OA
ENDBRANCH  13  14
ENDBRANCH  12  13
BRANCH  12  17
HETATM   17  C   LIG     1      25.102  20.226  18.271  1.00  0.00    -0.049 A 
HETATM   18  C   LIG     1      24.061  19.667  17.502  1.00  0.00     0.008 A 
HETATM   19  C   LIG     1      24.324  19.071  16.266  1.00  0.00     0.001 A 
HETATM   20  C   LIG     1      25.629  19.028  15.775  1.00  0.00     0.000 A 
HETATM   21  C   LIG     1      26.671  19.585  16.518  1.00  0.00     0.001 A 
HETATM   22  C   LIG     1      26.411  20.184  17.755  1.00  0.00     0.008 A 
ENDBRANCH  12  17
ENDBRANCH   1  12
BRANCH   4  23
HETATM   23  O   LIG     1      26.345  21.176  21.943  1.00  0.00    -0.359 OA
HETATM   24  H   LIG     1      25.541  20.629  22.211  1.00  0.00     0.217 HD
ENDBRANCH   4  23
TORSDOF 5
ENDMDL
MODEL 14
REMARK VINA RESULT:      -5.4     15.541     17.632
REMARK  5 active torsions:
REMARK  status: ('A' for Active; 'I' for Inactive)
REMARK    1  A    between atoms: C_2  and  C_3 
REMARK    2  A    between atoms: C_3  and  C_4 
REMARK    3  A    between atoms: C_4  and  C_5 
REMARK    4  A    between atoms: C_4  and  C_11 
REMARK    5  A    between atoms: C_14  and  O_22 
ROOT
HETATM    1  C   LIG     1      27.380  23.486  20.123  1.00  0.00     0.060 A 
HETATM    2  C   LIG     1      26.748  23.540  21.388  1.00  0.00     0.298 A 
HETATM    3  O   LIG     1      27.363  23.967  22.401  1.00  0.00    -0.259 OA
HETATM    4  C   LIG     1      26.615  23.049  19.018  1.00  0.00     0.091 A 
HETATM    5  C   LIG     1      25.273  22.646  19.216  1.00  0.00     0.032 A 
HETATM    6  C   LIG     1      24.442  22.172  18.177  1.00  0.00     0.017 A 
HETATM    7  C   LIG     1      23.124  21.789  18.443  1.00  0.00     0.001 A 
HETATM    8  C   LIG     1      22.615  21.869  19.739  1.00  0.00     0.003 A 
HETATM    9  C   LIG     1      23.421  22.332  20.778  1.00  0.00     0.038 A 
HETATM   10  C   LIG     1      24.743  22.719  20.527  1.00  0.00     0.092 A 
HETATM   11  O   LIG     1      25.487  23.159  21.531  1.00  0.00    -0.274 OA
ENDROOT
BRANCH   1  12
HETATM   12  C   LIG     1      28.841  23.909  19.918  1.00  0.00     0.067 C 
BRANCH  12  13
HETATM   13  C   LIG     1      29.757  22.710  19.536  1.00  0.00     0.092 C 
BRANCH  13  14
HETATM   14  C   LIG     1      29.747  21.520  20.474  1.00  0.00     0.124 C 
HETATM   15  C   LIG     1      30.178  21.677  21.904  1.00  0.00     0.091 C 
HETATM   16  O   LIG     1      29.275  20.454  20.114  1.00  0.00    -0.298 OA
ENDBRANCH  13  14
ENDBRANCH  12  13
BRANCH  12  17
HETATM   17  C   LIG     1      28.986  25.187  19.092  1.00  0.00    -0.049 A 
HETATM   18  C   LIG     1      29.972  25.222  18.084  1.00  0.00     0.008 A 
HETATM   19  C   LIG     1      30.149  26.363  17.297  1.00  0.00     0.001 A 
HETATM   20  C   LIG     1      29.341  27.483  17.496  1.00  0.00     0.000 A 
HETATM   21  C   LIG     1      28.353  27.462  18.482  1.00  0.00     0.001 A 
HETATM   22  C   LIG     1      28.173  26.322  19.272  1.00  0.00     0.008 A 
ENDBRANCH  12  17
ENDBRANCH   1  12
BRANCH   4  23
HETATM   23  O   LIG     1      27.217  23.037  17.754  1.00  0.00    -0.359 OA
HETATM   24  H   LIG     1      27.677  22.240  17.341  1.00  0.00     0.217 HD
ENDBRANCH   4  23
TORSDOF 5
ENDMDL
MODEL 15
REMARK VINA RESULT:      -5.4     15.806     17.594
REMARK  5 active torsions:
REMARK  status: ('A' for Active; 'I' for Inactive)
REMARK    1  A    between atoms: C_2  and  C_3 
REMARK    2  A    between atoms: C_3  and  C_4 
REMARK    3  A    between atoms: C_4  and  C_5 
REMARK    4  A    between atoms: C_4  and  C_11 
REMARK    5  A    between atoms: C_14  and  O_22 
ROOT
HETATM    1  C   LIG     1      27.282  23.686  18.597  1.00  0.00     0.060 A 
HETATM    2  C   LIG     1      26.187  24.260  19.286  1.00  0.00     0.298 A 
HETATM    3  O   LIG     1      26.290  25.388  19.837  1.00  0.00    -0.259 OA
HETATM    4  C   LIG     1      27.081  22.443  17.955  1.00  0.00     0.091 A 
HETATM    5  C   LIG     1      25.824  21.802  18.054  1.00  0.00     0.032 A 
HETATM    6  C   LIG     1      25.541  20.549  17.466  1.00  0.00     0.017 A 
HETATM    7  C   LIG     1      24.275  19.972  17.605  1.00  0.00     0.001 A 
HETATM    8  C   LIG     1      23.278  20.627  18.327  1.00  0.00     0.003 A 
HETATM    9  C   LIG     1      23.539  21.863  18.916  1.00  0.00     0.038 A 
HETATM   10  C   LIG     1      24.802  22.453  18.786  1.00  0.00     0.092 A 
HETATM   11  O   LIG     1      25.023  23.630  19.353  1.00  0.00    -0.274 OA
ENDROOT
BRANCH   1  12
HETATM   12  C   LIG     1      28.649  24.379  18.506  1.00  0.00     0.067 C 
BRANCH  12  13
HETATM   13  C   LIG     1      28.627  25.607  17.549  1.00  0.00     0.092 C 
BRANCH  13  14
HETATM   14  C   LIG     1      29.080  25.368  16.123  1.00  0.00     0.124 C 
HETATM   15  C   LIG     1      29.530  26.517  15.267  1.00  0.00     0.091 C 
HETATM   16  O   LIG     1      29.200  24.231  15.697  1.00  0.00    -0.298 OA
ENDBRANCH  13  14
ENDBRANCH  12  13
BRANCH  12  17
HETATM   17  C   LIG     1      29.319  24.566  19.866  1.00  0.00    -0.049 A 
HETATM   18  C   LIG     1      29.784  25.852  20.209  1.00  0.00     0.008 A 
HETATM   19  C   LIG     1      30.404  26.084  21.440  1.00  0.00     0.001 A 
HETATM   20  C   LIG     1      30.562  25.038  22.351  1.00  0.00     0.000 A 
HETATM   21  C   LIG     1      30.099  23.761  22.032  1.00  0.00     0.001 A 
HETATM   22  C   LIG     1      29.478  23.525  20.801  1.00  0.00     0.008 A 
ENDBRANCH  12  17
ENDBRANCH   1  12
BRANCH   4  23
HETATM   23  O   LIG     1      28.144  21.889  17.230  1.00  0.00    -0.359 OA
HETATM   24  H   LIG     1      28.752  21.157  17.564  1.00  0.00     0.217 HD
ENDBRANCH   4  23
TORSDOF 5
ENDMDL
MODEL 16
REMARK VINA RESULT:      -5.2      6.635      9.076
REMARK  5 active torsions:
REMARK  status: ('A' for Active; 'I' for Inactive)
REMARK    1  A    between atoms: C_2  and  C_3 
REMARK    2  A    between atoms: C_3  and  C_4 
REMARK    3  A    between atoms: C_4  and  C_5 
REMARK    4  A    between atoms: C_4  and  C_11 
REMARK    5  A    between atoms: C_14  and  O_22 
ROOT
HETATM    1  C   LIG     1      17.071  32.736  14.262  1.00  0.00     0.060 A 
HETATM    2  C   LIG     1      18.350  32.575  14.845  1.00  0.00     0.298 A 
HETATM    3  O   LIG     1      18.491  31.962  15.936  1.00  0.00    -0.259 OA
HETATM    4  C   LIG     1      16.991  33.385  13.009  1.00  0.00     0.091 A 
HETATM    5  C   LIG     1      18.170  33.882  12.405  1.00  0.00     0.032 A 
HETATM    6  C   LIG     1      18.182  34.564  11.169  1.00  0.00     0.017 A 
HETATM    7  C   LIG     1      19.385  35.031  10.629  1.00  0.00     0.001 A 
HETATM    8  C   LIG     1      20.587  34.829  11.309  1.00  0.00     0.003 A 
HETATM    9  C   LIG     1      20.594  34.159  12.531  1.00  0.00     0.038 A 
HETATM   10  C   LIG     1      19.397  33.687  13.083  1.00  0.00     0.092 A 
HETATM   11  O   LIG     1      19.432  33.051  14.245  1.00  0.00    -0.274 OA
ENDROOT
BRANCH   1  12
HETATM   12  C   LIG     1      15.793  32.208  14.929  1.00  0.00     0.067 C 
BRANCH  12  13
HETATM   13  C   LIG     1      15.628  30.669  14.759  1.00  0.00     0.092 C 
BRANCH  13  14
HETATM   14  C   LIG     1      14.212  30.145  14.641  1.00  0.00     0.124 C 
HETATM   15  C   LIG     1      13.132  30.668  15.543  1.00  0.00     0.091 C 
HETATM   16  O   LIG     1      13.909  29.385  13.735  1.00  0.00    -0.298 OA
ENDBRANCH  13  14
ENDBRANCH  12  13
BRANCH  12  17
HETATM   17  C   LIG     1      15.563  32.783  16.326  1.00  0.00    -0.049 A 
HETATM   18  C   LIG     1      15.509  31.889  17.415  1.00  0.00     0.008 A 
HETATM   19  C   LIG     1      15.302  32.358  18.715  1.00  0.00     0.001 A 
HETATM   20  C   LIG     1      15.156  33.725  18.951  1.00  0.00     0.000 A 
HETATM   21  C   LIG     1      15.218  34.625  17.886  1.00  0.00     0.001 A 
HETATM   22  C   LIG     1      15.424  34.161  16.583  1.00  0.00     0.008 A 
ENDBRANCH  12  17
ENDBRANCH   1  12
BRANCH   4  23
HETATM   23  O   LIG     1      15.735  33.507  12.402  1.00  0.00    -0.359 OA
HETATM   24  H   LIG     1      15.451  34.273  11.810  1.00  0.00     0.217 HD
ENDBRANCH   4  23
TORSDOF 5
ENDMDL
MODEL 17
REMARK VINA RESULT:      -4.8     15.759     17.929
REMARK  5 active torsions:
REMARK  status: ('A' for Active; 'I' for Inactive)
REMARK    1  A    between atoms: C_2  and  C_3 
REMARK    2  A    between atoms: C_3  and  C_4 
REMARK    3  A    between atoms: C_4  and  C_5 
REMARK    4  A    between atoms: C_4  and  C_11 
REMARK    5  A    between atoms: C_14  and  O_22 
ROOT
HETATM    1  C   LIG     1      26.835  22.917  19.457  1.00  0.00     0.060 A 
HETATM    2  C   LIG     1      25.577  23.273  18.916  1.00  0.00     0.298 A 
HETATM    3  O   LIG     1      25.491  23.820  17.785  1.00  0.00    -0.259 OA
HETATM    4  C   LIG     1      26.856  22.256  20.706  1.00  0.00     0.091 A 
HETATM    5  C   LIG     1      25.639  22.011  21.385  1.00  0.00     0.032 A 
HETATM    6  C   LIG     1      25.566  21.380  22.646  1.00  0.00     0.017 A 
HETATM    7  C   LIG     1      24.328  21.169  23.262  1.00  0.00     0.001 A 
HETATM    8  C   LIG     1      23.152  21.583  22.636  1.00  0.00     0.003 A 
HETATM    9  C   LIG     1      23.205  22.209  21.392  1.00  0.00     0.038 A 
HETATM   10  C   LIG     1      24.437  22.427  20.764  1.00  0.00     0.092 A 
HETATM   11  O   LIG     1      24.459  23.022  19.581  1.00  0.00    -0.274 OA
ENDROOT
BRANCH   1  12
HETATM   12  C   LIG     1      28.154  23.200  18.723  1.00  0.00     0.067 C 
BRANCH  12  13
HETATM   13  C   LIG     1      28.413  22.196  17.563  1.00  0.00     0.092 C 
BRANCH  13  14
HETATM   14  C   LIG     1      29.441  21.113  17.815  1.00  0.00     0.124 C 
HETATM   15  C   LIG     1      30.677  21.027  16.966  1.00  0.00     0.091 C 
HETATM   16  O   LIG     1      29.339  20.379  18.785  1.00  0.00    -0.298 OA
ENDBRANCH  13  14
ENDBRANCH  12  13
BRANCH  12  17
HETATM   17  C   LIG     1      28.367  24.683  18.422  1.00  0.00    -0.049 A 
HETATM   18  C   LIG     1      28.958  25.036  17.191  1.00  0.00     0.008 A 
HETATM   19  C   LIG     1      29.177  26.376  16.861  1.00  0.00     0.001 A 
HETATM   20  C   LIG     1      28.802  27.385  17.749  1.00  0.00     0.000 A 
HETATM   21  C   LIG     1      28.207  27.055  18.967  1.00  0.00     0.001 A 
HETATM   22  C   LIG     1      27.987  25.715  19.302  1.00  0.00     0.008 A 
ENDBRANCH  12  17
ENDBRANCH   1  12
BRANCH   4  23
HETATM   23  O   LIG     1      28.093  21.858  21.228  1.00  0.00    -0.359 OA
HETATM   24  H   LIG     1      28.270  21.647  22.198  1.00  0.00     0.217 HD
ENDBRANCH   4  23
TORSDOF 5
ENDMDL
MODEL 18
REMARK VINA RESULT:      -4.8     15.469     17.826
REMARK  5 active torsions:
REMARK  status: ('A' for Active; 'I' for Inactive)
REMARK    1  A    between atoms: C_2  and  C_3 
REMARK    2  A    between atoms: C_3  and  C_4 
REMARK    3  A    between atoms: C_4  and  C_5 
REMARK    4  A    between atoms: C_4  and  C_11 
REMARK    5  A    between atoms: C_14  and  O_22 
ROOT
HETATM    1  C   LIG     1      25.646  21.564  21.686  1.00  0.00     0.060 A 
HETATM    2  C   LIG     1      26.574  20.532  21.965  1.00  0.00     0.298 A 
HETATM    3  O   LIG     1      27.357  20.108  21.074  1.00  0.00    -0.259 OA
HETATM    4  C   LIG     1      24.836  22.031  22.745  1.00  0.00     0.091 A 
HETATM    5  C   LIG     1      24.946  21.433  24.022  1.00  0.00     0.032 A 
HETATM    6  C   LIG     1      24.161  21.817  25.131  1.00  0.00     0.017 A 
HETATM    7  C   LIG     1      24.322  21.183  26.367  1.00  0.00     0.001 A 
HETATM    8  C   LIG     1      25.260  20.161  26.517  1.00  0.00     0.003 A 
HETATM    9  C   LIG     1      26.042  19.766  25.432  1.00  0.00     0.038 A 
HETATM   10  C   LIG     1      25.892  20.393  24.190  1.00  0.00     0.092 A 
HETATM   11  O   LIG     1      26.650  20.001  23.177  1.00  0.00    -0.274 OA
ENDROOT
BRANCH   1  12
HETATM   12  C   LIG     1      25.519  22.198  20.293  1.00  0.00     0.067 C 
BRANCH  12  13
HETATM   13  C   LIG     1      24.070  22.111  19.733  1.00  0.00     0.092 C 
BRANCH  13  14
HETATM   14  C   LIG     1      23.895  21.407  18.403  1.00  0.00     0.124 C 
HETATM   15  C   LIG     1      25.079  20.811  17.698  1.00  0.00     0.091 C 
HETATM   16  O   LIG     1      22.778  21.209  17.951  1.00  0.00    -0.298 OA
ENDBRANCH  13  14
ENDBRANCH  12  13
BRANCH  12  17
HETATM   17  C   LIG     1      26.230  23.546  20.180  1.00  0.00    -0.049 A 
HETATM   18  C   LIG     1      27.210  23.867  21.141  1.00  0.00     0.008 A 
HETATM   19  C   LIG     1      27.894  25.084  21.086  1.00  0.00     0.001 A 
HETATM   20  C   LIG     1      27.617  25.997  20.068  1.00  0.00     0.000 A 
HETATM   21  C   LIG     1      26.657  25.692  19.102  1.00  0.00     0.001 A 
HETATM   22  C   LIG     1      25.970  24.475  19.153  1.00  0.00     0.008 A 
ENDBRANCH  12  17
ENDBRANCH   1  12
BRANCH   4  23
HETATM   23  O   LIG     1      23.948  23.084  22.490  1.00  0.00    -0.359 OA
HETATM   24  H   LIG     1      23.643  23.761  23.173  1.00  0.00     0.217 HD
ENDBRANCH   4  23
TORSDOF 5
ENDMDL
MODEL 19
REMARK VINA RESULT:      -4.7     15.460     17.486
REMARK  5 active torsions:
REMARK  status: ('A' for Active; 'I' for Inactive)
REMARK    1  A    between atoms: C_2  and  C_3 
REMARK    2  A    between atoms: C_3  and  C_4 
REMARK    3  A    between atoms: C_4  and  C_5 
REMARK    4  A    between atoms: C_4  and  C_11 
REMARK    5  A    between atoms: C_14  and  O_22 
ROOT
HETATM    1  C   LIG     1      27.373  23.958  19.034  1.00  0.00     0.060 A 
HETATM    2  C   LIG     1      26.289  24.830  19.289  1.00  0.00     0.298 A 
HETATM    3  O   LIG     1      26.226  25.962  18.740  1.00  0.00    -0.259 OA
HETATM    4  C   LIG     1      27.353  22.681  19.638  1.00  0.00     0.091 A 
HETATM    5  C   LIG     1      26.285  22.335  20.500  1.00  0.00     0.032 A 
HETATM    6  C   LIG     1      26.195  21.093  21.166  1.00  0.00     0.017 A 
HETATM    7  C   LIG     1      25.110  20.817  22.005  1.00  0.00     0.001 A 
HETATM    8  C   LIG     1      24.107  21.767  22.194  1.00  0.00     0.003 A 
HETATM    9  C   LIG     1      24.181  23.000  21.547  1.00  0.00     0.038 A 
HETATM   10  C   LIG     1      25.260  23.290  20.704  1.00  0.00     0.092 A 
HETATM   11  O   LIG     1      25.304  24.467  20.099  1.00  0.00    -0.274 OA
ENDROOT
BRANCH   1  12
HETATM   12  C   LIG     1      28.537  24.345  18.110  1.00  0.00     0.067 C 
BRANCH  12  13
HETATM   13  C   LIG     1      28.141  24.295  16.605  1.00  0.00     0.092 C 
BRANCH  13  14
HETATM   14  C   LIG     1      29.113  23.610  15.667  1.00  0.00     0.124 C 
HETATM   15  C   LIG     1      29.802  22.342  16.081  1.00  0.00     0.091 C 
HETATM   16  O   LIG     1      29.252  24.011  14.522  1.00  0.00    -0.298 OA
ENDBRANCH  13  14
ENDBRANCH  12  13
BRANCH  12  17
HETATM   17  C   LIG     1      29.300  25.579  18.590  1.00  0.00    -0.049 A 
HETATM   18  C   LIG     1      29.277  26.734  17.781  1.00  0.00     0.008 A 
HETATM   19  C   LIG     1      29.955  27.892  18.169  1.00  0.00     0.001 A 
HETATM   20  C   LIG     1      30.659  27.920  19.374  1.00  0.00     0.000 A 
HETATM   21  C   LIG     1      30.684  26.790  20.191  1.00  0.00     0.001 A 
HETATM   22  C   LIG     1      30.008  25.628  19.806  1.00  0.00     0.008 A 
ENDBRANCH  12  17
ENDBRANCH   1  12
BRANCH   4  23
HETATM   23  O   LIG     1      28.398  21.793  19.354  1.00  0.00    -0.359 OA
HETATM   24  H   LIG     1      28.684  21.515  18.428  1.00  0.00     0.217 HD
ENDBRANCH   4  23
TORSDOF 5
ENDMDL
MODEL 20
REMARK VINA RESULT:      -4.7     16.417     18.177
REMARK  5 active torsions:
REMARK  status: ('A' for Active; 'I' for Inactive)
REMARK    1  A    between atoms: C_2  and  C_3 
REMARK    2  A    between atoms: C_3  and  C_4 
REMARK    3  A    between atoms: C_4  and  C_5 
REMARK    4  A    between atoms: C_4  and  C_11 
REMARK    5  A    between atoms: C_14  and  O_22 
ROOT
HETATM    1  C   LIG     1      26.103  22.135  18.498  1.00  0.00     0.060 A 
HETATM    2  C   LIG     1      24.899  22.485  19.153  1.00  0.00     0.298 A 
HETATM    3  O   LIG     1      24.844  23.485  19.917  1.00  0.00    -0.259 OA
HETATM    4  C   LIG     1      26.081  21.035  17.612  1.00  0.00     0.091 A 
HETATM    5  C   LIG     1      24.882  20.303  17.441  1.00  0.00     0.032 A 
HETATM    6  C   LIG     1      24.773  19.176  16.597  1.00  0.00     0.017 A 
HETATM    7  C   LIG     1      23.556  18.498  16.475  1.00  0.00     0.001 A 
HETATM    8  C   LIG     1      22.437  18.926  17.189  1.00  0.00     0.003 A 
HETATM    9  C   LIG     1      22.526  20.035  18.029  1.00  0.00     0.038 A 
HETATM   10  C   LIG     1      23.738  20.724  18.160  1.00  0.00     0.092 A 
HETATM   11  O   LIG     1      23.795  21.776  18.963  1.00  0.00    -0.274 OA
ENDROOT
BRANCH   1  12
HETATM   12  C   LIG     1      27.405  22.924  18.700  1.00  0.00     0.067 C 
BRANCH  12  13
HETATM   13  C   LIG     1      27.425  24.252  17.887  1.00  0.00     0.092 C 
BRANCH  13  14
HETATM   14  C   LIG     1      28.630  24.492  17.003  1.00  0.00     0.124 C 
HETATM   15  C   LIG     1      29.560  23.363  16.663  1.00  0.00     0.091 C 
HETATM   16  O   LIG     1      28.790  25.573  16.458  1.00  0.00    -0.298 OA
ENDBRANCH  13  14
ENDBRANCH  12  13
BRANCH  12  17
HETATM   17  C   LIG     1      27.845  22.995  20.161  1.00  0.00    -0.049 A 
HETATM   18  C   LIG     1      28.087  24.264  20.725  1.00  0.00     0.008 A 
HETATM   19  C   LIG     1      28.490  24.390  22.057  1.00  0.00     0.001 A 
HETATM   20  C   LIG     1      28.649  23.253  22.850  1.00  0.00     0.000 A 
HETATM   21  C   LIG     1      28.404  21.989  22.311  1.00  0.00     0.001 A 
HETATM   22  C   LIG     1      28.001  21.858  20.979  1.00  0.00     0.008 A 
ENDBRANCH  12  17
ENDBRANCH   1  12
BRANCH   4  23
HETATM   23  O   LIG     1      27.256  20.710  16.923  1.00  0.00    -0.359 OA
HETATM   24  H   LIG     1      27.890  19.969  17.179  1.00  0.00     0.217 HD
ENDBRANCH   4  23
TORSDOF 5
ENDMDL
