REMARK  5 active torsions:
REMARK  status: ('A' for Active; 'I' for Inactive)
REMARK    1  A    between atoms: C_2  and  C_3 
REMARK    2  A    between atoms: C_3  and  C_4 
REMARK    3  A    between atoms: C_4  and  C_5 
REMARK    4  A    between atoms: C_4  and  C_11 
REMARK    5  A    between atoms: C_14  and  O_22 
ROOT
HETATM    1  C   LIG     1       0.465  -0.040   0.024  1.00  0.00     0.060 A 
HETATM    2  C   LIG     1       0.298  -0.460  -1.317  1.00  0.00     0.298 A 
HETATM    3  O   LIG     1      -0.851  -0.602  -1.812  1.00  0.00    -0.259 OA
HETATM    4  C   LIG     1       1.782   0.153   0.499  1.00  0.00     0.091 A 
HETATM    5  C   LIG     1       2.877  -0.115  -0.356  1.00  0.00     0.032 A 
HETATM    6  C   LIG     1       4.225   0.026   0.040  1.00  0.00     0.017 A 
HETATM    7  C   LIG     1       5.260  -0.257  -0.857  1.00  0.00     0.001 A 
HETATM    8  C   LIG     1       4.971  -0.684  -2.153  1.00  0.00     0.003 A 
HETATM    9  C   LIG     1       3.646  -0.831  -2.561  1.00  0.00     0.038 A 
HETATM   10  C   LIG     1       2.600  -0.551  -1.674  1.00  0.00     0.092 A 
HETATM   11  O   LIG     1       1.350  -0.696  -2.088  1.00  0.00    -0.274 OA
ENDROOT
BRANCH   1  12
HETATM   12  C   LIG     1      -0.727   0.234   0.952  1.00  0.00     0.067 C 
BRANCH  12  13
HETATM   13  C   LIG     1      -1.093   1.746   1.015  1.00  0.00     0.092 C 
BRANCH  13  14
HETATM   14  C   LIG     1      -1.409   2.426  -0.301  1.00  0.00     0.124 C 
HETATM   15  C   LIG     1      -2.573   3.369  -0.408  1.00  0.00     0.091 C 
HETATM   16  O   LIG     1      -0.652   2.312  -1.252  1.00  0.00    -0.298 OA
ENDBRANCH  13  14
ENDBRANCH  12  13
BRANCH  12  17
HETATM   17  C   LIG     1      -1.877  -0.754   0.761  1.00  0.00    -0.049 A 
HETATM   18  C   LIG     1      -1.618  -2.126   0.956  1.00  0.00     0.008 A 
HETATM   19  C   LIG     1      -2.631  -3.075   0.797  1.00  0.00     0.001 A 
HETATM   20  C   LIG     1      -3.920  -2.670   0.449  1.00  0.00     0.000 A 
HETATM   21  C   LIG     1      -4.197  -1.315   0.262  1.00  0.00     0.001 A 
HETATM   22  C   LIG     1      -3.186  -0.362   0.420  1.00  0.00     0.008 A 
ENDBRANCH  12  17
ENDBRANCH   1  12
BRANCH   4  23
HETATM   23  O   LIG     1       1.956   0.614   1.810  1.00  0.00    -0.359 OA
HETATM   24  H   LIG     1       2.847   0.810   2.240  1.00  0.00     0.217 HD
ENDBRANCH   4  23
TORSDOF 5
