REMARK  0 active torsions:
REMARK  status: ('A' for Active; 'I' for Inactive)
ROOT
HETATM    1  S   LIG     1      -3.728   0.810  -0.049  1.00  0.00    -0.059 SA
HETATM    2  C   LIG     1      -2.193   0.240  -0.001  1.00  0.00     0.119 A 
HETATM    3  C   LIG     1      -1.958  -1.134   0.156  1.00  0.00     0.159 A 
HETATM    4  N   LIG     1      -0.681  -1.597   0.194  1.00  0.00    -0.253 NA
HETATM    5  C   LIG     1       0.371  -0.747   0.082  1.00  0.00     0.120 A 
HETATM    6  C   LIG     1       1.688  -1.205   0.120  1.00  0.00     0.153 A 
HETATM    7  N   LIG     1       2.711  -0.318   0.004  1.00  0.00    -0.252 NA
HETATM    8  C   LIG     1       2.473   1.013  -0.148  1.00  0.00     0.235 A 
HETATM    9  N   LIG     1       1.196   1.481  -0.187  1.00  0.00    -0.222 NA
HETATM   10  C   LIG     1       0.142   0.630  -0.075  1.00  0.00     0.160 A 
HETATM   11  N   LIG     1      -1.137   1.095  -0.114  1.00  0.00    -0.329 N 
HETATM   12  H   LIG     1      -1.305   2.121  -0.231  1.00  0.00     0.168 HD
ENDROOT
TORSDOF 0
