MODEL 1
REMARK VINA RESULT:      -5.8      0.000      0.000
REMARK  0 active torsions:
REMARK  status: ('A' for Active; 'I' for Inactive)
ROOT
HETATM    1  S   LIG     1      15.585  34.522  21.209  1.00  0.00    -0.059 SA
HETATM    2  C   LIG     1      16.505  35.878  21.207  1.00  0.00     0.119 A 
HETATM    3  C   LIG     1      16.270  36.888  22.151  1.00  0.00     0.159 A 
HETATM    4  N   LIG     1      17.039  38.008  22.142  1.00  0.00    -0.253 NA
HETATM    5  C   LIG     1      18.032  38.163  21.230  1.00  0.00     0.120 A 
HETATM    6  C   LIG     1      18.831  39.306  21.205  1.00  0.00     0.153 A 
HETATM    7  N   LIG     1      19.814  39.419  20.274  1.00  0.00    -0.252 NA
HETATM    8  C   LIG     1      20.034  38.434  19.362  1.00  0.00     0.235 A 
HETATM    9  N   LIG     1      19.267  37.310  19.368  1.00  0.00    -0.222 NA
HETATM   10  C   LIG     1      18.272  37.155  20.281  1.00  0.00     0.160 A 
HETATM   11  N   LIG     1      17.503  36.032  20.290  1.00  0.00    -0.329 N 
HETATM   12  H   LIG     1      17.683  35.282  19.583  1.00  0.00     0.168 HD
ENDROOT
TORSDOF 0
ENDMDL
MODEL 2
REMARK VINA RESULT:      -5.7      3.093      4.524
REMARK  0 active torsions:
REMARK  status: ('A' for Active; 'I' for Inactive)
ROOT
HETATM    1  S   LIG     1      15.987  35.205  20.550  1.00  0.00    -0.059 SA
HETATM    2  C   LIG     1      16.453  35.859  21.978  1.00  0.00     0.119 A 
HETATM    3  C   LIG     1      16.473  37.252  22.140  1.00  0.00     0.159 A 
HETATM    4  N   LIG     1      16.861  37.785  23.328  1.00  0.00    -0.253 NA
HETATM    5  C   LIG     1      17.229  36.986  24.362  1.00  0.00     0.120 A 
HETATM    6  C   LIG     1      17.630  37.516  25.588  1.00  0.00     0.153 A 
HETATM    7  N   LIG     1      17.991  36.679  26.596  1.00  0.00    -0.252 NA
HETATM    8  C   LIG     1      17.968  35.329  26.430  1.00  0.00     0.235 A 
HETATM    9  N   LIG     1      17.580  34.791  25.242  1.00  0.00    -0.222 NA
HETATM   10  C   LIG     1      17.211  35.590  24.206  1.00  0.00     0.160 A 
HETATM   11  N   LIG     1      16.822  35.055  23.016  1.00  0.00    -0.329 N 
HETATM   12  H   LIG     1      16.810  34.015  22.902  1.00  0.00     0.168 HD
ENDROOT
TORSDOF 0
ENDMDL
MODEL 3
REMARK VINA RESULT:      -5.4      7.150      8.723
REMARK  0 active torsions:
REMARK  status: ('A' for Active; 'I' for Inactive)
ROOT
HETATM    1  S   LIG     1      18.090  33.685  13.394  1.00  0.00    -0.059 SA
HETATM    2  C   LIG     1      16.914  32.894  14.215  1.00  0.00     0.119 A 
HETATM    3  C   LIG     1      16.114  31.947  13.558  1.00  0.00     0.159 A 
HETATM    4  N   LIG     1      15.141  31.296  14.248  1.00  0.00    -0.253 NA
HETATM    5  C   LIG     1      14.933  31.550  15.565  1.00  0.00     0.120 A 
HETATM    6  C   LIG     1      13.938  30.891  16.288  1.00  0.00     0.153 A 
HETATM    7  N   LIG     1      13.765  31.177  17.606  1.00  0.00    -0.252 NA
HETATM    8  C   LIG     1      14.546  32.097  18.234  1.00  0.00     0.235 A 
HETATM    9  N   LIG     1      15.522  32.751  17.547  1.00  0.00    -0.222 NA
HETATM   10  C   LIG     1      15.731  32.497  16.228  1.00  0.00     0.160 A 
HETATM   11  N   LIG     1      16.706  33.150  15.538  1.00  0.00    -0.329 N 
HETATM   12  H   LIG     1      17.299  33.855  16.034  1.00  0.00     0.168 HD
ENDROOT
TORSDOF 0
ENDMDL
MODEL 4
REMARK VINA RESULT:      -5.2      2.004      2.752
REMARK  0 active torsions:
REMARK  status: ('A' for Active; 'I' for Inactive)
ROOT
HETATM    1  S   LIG     1      17.177  38.172  25.104  1.00  0.00    -0.059 SA
HETATM    2  C   LIG     1      17.474  37.830  23.530  1.00  0.00     0.119 A 
HETATM    3  C   LIG     1      16.986  36.643  22.965  1.00  0.00     0.159 A 
HETATM    4  N   LIG     1      17.237  36.368  21.658  1.00  0.00    -0.253 NA
HETATM    5  C   LIG     1      17.955  37.228  20.892  1.00  0.00     0.120 A 
HETATM    6  C   LIG     1      18.223  36.962  19.549  1.00  0.00     0.153 A 
HETATM    7  N   LIG     1      18.946  37.851  18.819  1.00  0.00    -0.252 NA
HETATM    8  C   LIG     1      19.415  39.000  19.377  1.00  0.00     0.235 A 
HETATM    9  N   LIG     1      19.166  39.279  20.685  1.00  0.00    -0.222 NA
HETATM   10  C   LIG     1      18.447  38.418  21.452  1.00  0.00     0.160 A 
HETATM   11  N   LIG     1      18.195  38.695  22.761  1.00  0.00    -0.329 N 
HETATM   12  H   LIG     1      18.562  39.582  23.177  1.00  0.00     0.168 HD
ENDROOT
TORSDOF 0
ENDMDL
MODEL 5
REMARK VINA RESULT:      -5.2      7.754      9.181
REMARK  0 active torsions:
REMARK  status: ('A' for Active; 'I' for Inactive)
ROOT
HETATM    1  S   LIG     1      18.757  34.057  12.166  1.00  0.00    -0.059 SA
HETATM    2  C   LIG     1      17.699  33.498  13.286  1.00  0.00     0.119 A 
HETATM    3  C   LIG     1      17.600  34.129  14.535  1.00  0.00     0.159 A 
HETATM    4  N   LIG     1      16.720  33.658  15.457  1.00  0.00    -0.253 NA
HETATM    5  C   LIG     1      15.934  32.586  15.185  1.00  0.00     0.120 A 
HETATM    6  C   LIG     1      15.026  32.089  16.120  1.00  0.00     0.153 A 
HETATM    7  N   LIG     1      14.259  31.012  15.805  1.00  0.00    -0.252 NA
HETATM    8  C   LIG     1      14.362  30.407  14.590  1.00  0.00     0.235 A 
HETATM    9  N   LIG     1      15.242  30.875  13.664  1.00  0.00    -0.222 NA
HETATM   10  C   LIG     1      16.029  31.950  13.936  1.00  0.00     0.160 A 
HETATM   11  N   LIG     1      16.911  32.420  13.011  1.00  0.00    -0.329 N 
HETATM   12  H   LIG     1      16.980  31.945  12.082  1.00  0.00     0.168 HD
ENDROOT
TORSDOF 0
ENDMDL
MODEL 6
REMARK VINA RESULT:      -4.9      3.599      5.278
REMARK  0 active torsions:
REMARK  status: ('A' for Active; 'I' for Inactive)
ROOT
HETATM    1  S   LIG     1      17.838  39.311  21.586  1.00  0.00    -0.059 SA
HETATM    2  C   LIG     1      17.641  38.034  22.593  1.00  0.00     0.119 A 
HETATM    3  C   LIG     1      17.025  36.862  22.129  1.00  0.00     0.159 A 
HETATM    4  N   LIG     1      16.867  35.808  22.972  1.00  0.00    -0.253 NA
HETATM    5  C   LIG     1      17.296  35.874  24.257  1.00  0.00     0.120 A 
HETATM    6  C   LIG     1      17.141  34.802  25.136  1.00  0.00     0.153 A 
HETATM    7  N   LIG     1      17.586  34.912  26.415  1.00  0.00    -0.252 NA
HETATM    8  C   LIG     1      18.182  36.053  26.856  1.00  0.00     0.235 A 
HETATM    9  N   LIG     1      18.343  37.111  26.015  1.00  0.00    -0.222 NA
HETATM   10  C   LIG     1      17.913  37.045  24.727  1.00  0.00     0.160 A 
HETATM   11  N   LIG     1      18.073  38.102  23.884  1.00  0.00    -0.329 N 
HETATM   12  H   LIG     1      18.533  38.973  24.236  1.00  0.00     0.168 HD
ENDROOT
TORSDOF 0
ENDMDL
MODEL 7
REMARK VINA RESULT:      -4.8      6.945      7.950
REMARK  0 active torsions:
REMARK  status: ('A' for Active; 'I' for Inactive)
ROOT
HETATM    1  S   LIG     1      14.300  28.957  14.104  1.00  0.00    -0.059 SA
HETATM    2  C   LIG     1      14.607  30.382  14.850  1.00  0.00     0.119 A 
HETATM    3  C   LIG     1      13.852  30.768  15.967  1.00  0.00     0.159 A 
HETATM    4  N   LIG     1      14.115  31.953  16.579  1.00  0.00    -0.253 NA
HETATM    5  C   LIG     1      15.100  32.768  16.124  1.00  0.00     0.120 A 
HETATM    6  C   LIG     1      15.383  33.987  16.740  1.00  0.00     0.153 A 
HETATM    7  N   LIG     1      16.378  34.772  16.250  1.00  0.00    -0.252 NA
HETATM    8  C   LIG     1      17.106  34.389  15.166  1.00  0.00     0.235 A 
HETATM    9  N   LIG     1      16.846  33.204  14.550  1.00  0.00    -0.222 NA
HETATM   10  C   LIG     1      15.860  32.387  15.005  1.00  0.00     0.160 A 
HETATM   11  N   LIG     1      15.597  31.200  14.392  1.00  0.00    -0.329 N 
HETATM   12  H   LIG     1      16.164  30.919  13.559  1.00  0.00     0.168 HD
ENDROOT
TORSDOF 0
ENDMDL
MODEL 8
REMARK VINA RESULT:      -4.8      2.708      4.023
REMARK  0 active torsions:
REMARK  status: ('A' for Active; 'I' for Inactive)
ROOT
HETATM    1  S   LIG     1      17.505  37.905  25.636  1.00  0.00    -0.059 SA
HETATM    2  C   LIG     1      17.383  37.460  24.064  1.00  0.00     0.119 A 
HETATM    3  C   LIG     1      17.893  38.292  23.056  1.00  0.00     0.159 A 
HETATM    4  N   LIG     1      17.788  37.914  21.755  1.00  0.00    -0.253 NA
HETATM    5  C   LIG     1      17.196  36.740  21.418  1.00  0.00     0.120 A 
HETATM    6  C   LIG     1      17.078  36.337  20.088  1.00  0.00     0.153 A 
HETATM    7  N   LIG     1      16.477  35.154  19.795  1.00  0.00    -0.252 NA
HETATM    8  C   LIG     1      15.986  34.353  20.779  1.00  0.00     0.235 A 
HETATM    9  N   LIG     1      16.089  34.728  22.083  1.00  0.00    -0.222 NA
HETATM   10  C   LIG     1      16.683  35.903  22.422  1.00  0.00     0.160 A 
HETATM   11  N   LIG     1      16.788  36.281  23.726  1.00  0.00    -0.329 N 
HETATM   12  H   LIG     1      16.405  35.655  24.472  1.00  0.00     0.168 HD
ENDROOT
TORSDOF 0
ENDMDL
MODEL 9
REMARK VINA RESULT:      -4.8      4.021      4.598
REMARK  0 active torsions:
REMARK  status: ('A' for Active; 'I' for Inactive)
ROOT
HETATM    1  S   LIG     1      18.679  36.313  26.876  1.00  0.00    -0.059 SA
HETATM    2  C   LIG     1      17.747  36.586  25.557  1.00  0.00     0.119 A 
HETATM    3  C   LIG     1      17.144  37.839  25.369  1.00  0.00     0.159 A 
HETATM    4  N   LIG     1      16.373  38.056  24.272  1.00  0.00    -0.253 NA
HETATM    5  C   LIG     1      16.178  37.076  23.353  1.00  0.00     0.120 A 
HETATM    6  C   LIG     1      15.389  37.281  22.222  1.00  0.00     0.153 A 
HETATM    7  N   LIG     1      15.221  36.271  21.328  1.00  0.00    -0.252 NA
HETATM    8  C   LIG     1      15.809  35.059  21.519  1.00  0.00     0.235 A 
HETATM    9  N   LIG     1      16.583  34.838  22.616  1.00  0.00    -0.222 NA
HETATM   10  C   LIG     1      16.778  35.819  23.536  1.00  0.00     0.160 A 
HETATM   11  N   LIG     1      17.552  35.601  24.635  1.00  0.00    -0.329 N 
HETATM   12  H   LIG     1      17.998  34.664  24.768  1.00  0.00     0.168 HD
ENDROOT
TORSDOF 0
ENDMDL
MODEL 10
REMARK VINA RESULT:      -4.8      2.437      4.219
REMARK  0 active torsions:
REMARK  status: ('A' for Active; 'I' for Inactive)
ROOT
HETATM    1  S   LIG     1      19.955  39.276  18.823  1.00  0.00    -0.059 SA
HETATM    2  C   LIG     1      19.040  38.351  19.818  1.00  0.00     0.119 A 
HETATM    3  C   LIG     1      18.673  37.053  19.432  1.00  0.00     0.159 A 
HETATM    4  N   LIG     1      17.914  36.294  20.266  1.00  0.00    -0.253 NA
HETATM    5  C   LIG     1      17.507  36.775  21.468  1.00  0.00     0.120 A 
HETATM    6  C   LIG     1      16.728  36.009  22.335  1.00  0.00     0.153 A 
HETATM    7  N   LIG     1      16.343  36.531  23.529  1.00  0.00    -0.252 NA
HETATM    8  C   LIG     1      16.704  37.790  23.895  1.00  0.00     0.235 A 
HETATM    9  N   LIG     1      17.464  38.554  23.064  1.00  0.00    -0.222 NA
HETATM   10  C   LIG     1      17.872  38.073  21.860  1.00  0.00     0.160 A 
HETATM   11  N   LIG     1      18.632  38.835  21.026  1.00  0.00    -0.329 N 
HETATM   12  H   LIG     1      18.902  39.802  21.320  1.00  0.00     0.168 HD
ENDROOT
TORSDOF 0
ENDMDL
MODEL 11
REMARK VINA RESULT:      -4.7      6.851      7.667
REMARK  0 active torsions:
REMARK  status: ('A' for Active; 'I' for Inactive)
ROOT
HETATM    1  S   LIG     1      13.475  30.725  16.337  1.00  0.00    -0.059 SA
HETATM    2  C   LIG     1      14.628  31.801  15.893  1.00  0.00     0.119 A 
HETATM    3  C   LIG     1      14.877  32.932  16.685  1.00  0.00     0.159 A 
HETATM    4  N   LIG     1      15.837  33.817  16.309  1.00  0.00    -0.253 NA
HETATM    5  C   LIG     1      16.558  33.622  15.175  1.00  0.00     0.120 A 
HETATM    6  C   LIG     1      17.545  34.522  14.774  1.00  0.00     0.153 A 
HETATM    7  N   LIG     1      18.243  34.287  13.631  1.00  0.00    -0.252 NA
HETATM    8  C   LIG     1      17.994  33.187  12.870  1.00  0.00     0.235 A 
HETATM    9  N   LIG     1      17.035  32.297  13.243  1.00  0.00    -0.222 NA
HETATM   10  C   LIG     1      16.313  32.492  14.378  1.00  0.00     0.160 A 
HETATM   11  N   LIG     1      15.352  31.603  14.755  1.00  0.00    -0.329 N 
HETATM   12  H   LIG     1      15.172  30.762  14.159  1.00  0.00     0.168 HD
ENDROOT
TORSDOF 0
ENDMDL
MODEL 12
REMARK VINA RESULT:      -4.7      6.725      8.187
REMARK  0 active torsions:
REMARK  status: ('A' for Active; 'I' for Inactive)
ROOT
HETATM    1  S   LIG     1      15.306  33.396  19.543  1.00  0.00    -0.059 SA
HETATM    2  C   LIG     1      15.100  32.628  18.111  1.00  0.00     0.119 A 
HETATM    3  C   LIG     1      14.188  31.566  18.008  1.00  0.00     0.159 A 
HETATM    4  N   LIG     1      14.024  30.935  16.816  1.00  0.00    -0.253 NA
HETATM    5  C   LIG     1      14.731  31.319  15.722  1.00  0.00     0.120 A 
HETATM    6  C   LIG     1      14.575  30.682  14.491  1.00  0.00     0.153 A 
HETATM    7  N   LIG     1      15.304  31.100  13.422  1.00  0.00    -0.252 NA
HETATM    8  C   LIG     1      16.185  32.130  13.532  1.00  0.00     0.235 A 
HETATM    9  N   LIG     1      16.353  32.765  14.724  1.00  0.00    -0.222 NA
HETATM   10  C   LIG     1      15.645  32.381  15.819  1.00  0.00     0.160 A 
HETATM   11  N   LIG     1      15.810  33.014  17.013  1.00  0.00    -0.329 N 
HETATM   12  H   LIG     1      16.491  33.805  17.083  1.00  0.00     0.168 HD
ENDROOT
TORSDOF 0
ENDMDL
MODEL 13
REMARK VINA RESULT:      -4.7      3.044      4.222
REMARK  0 active torsions:
REMARK  status: ('A' for Active; 'I' for Inactive)
ROOT
HETATM    1  S   LIG     1      15.980  35.498  20.128  1.00  0.00    -0.059 SA
HETATM    2  C   LIG     1      16.449  35.742  21.679  1.00  0.00     0.119 A 
HETATM    3  C   LIG     1      16.852  34.657  22.470  1.00  0.00     0.159 A 
HETATM    4  N   LIG     1      17.240  34.870  23.755  1.00  0.00    -0.253 NA
HETATM    5  C   LIG     1      17.243  36.120  24.283  1.00  0.00     0.120 A 
HETATM    6  C   LIG     1      17.637  36.357  25.600  1.00  0.00     0.153 A 
HETATM    7  N   LIG     1      17.624  37.625  26.087  1.00  0.00    -0.252 NA
HETATM    8  C   LIG     1      17.231  38.672  25.312  1.00  0.00     0.235 A 
HETATM    9  N   LIG     1      16.842  38.463  24.024  1.00  0.00    -0.222 NA
HETATM   10  C   LIG     1      16.840  37.211  23.495  1.00  0.00     0.160 A 
HETATM   11  N   LIG     1      16.451  36.999  22.208  1.00  0.00    -0.329 N 
HETATM   12  H   LIG     1      16.151  37.813  21.623  1.00  0.00     0.168 HD
ENDROOT
TORSDOF 0
ENDMDL
MODEL 14
REMARK VINA RESULT:      -4.5      1.919      2.265
REMARK  0 active torsions:
REMARK  status: ('A' for Active; 'I' for Inactive)
ROOT
HETATM    1  S   LIG     1      16.821  36.959  24.648  1.00  0.00    -0.059 SA
HETATM    2  C   LIG     1      17.419  37.591  23.260  1.00  0.00     0.119 A 
HETATM    3  C   LIG     1      17.812  38.937  23.213  1.00  0.00     0.159 A 
HETATM    4  N   LIG     1      18.308  39.452  22.057  1.00  0.00    -0.253 NA
HETATM    5  C   LIG     1      18.427  38.681  20.947  1.00  0.00     0.120 A 
HETATM    6  C   LIG     1      18.933  39.193  19.752  1.00  0.00     0.153 A 
HETATM    7  N   LIG     1      19.035  38.385  18.664  1.00  0.00    -0.252 NA
HETATM    8  C   LIG     1      18.651  37.081  18.720  1.00  0.00     0.235 A 
HETATM    9  N   LIG     1      18.155  36.561  19.875  1.00  0.00    -0.222 NA
HETATM   10  C   LIG     1      18.035  37.333  20.987  1.00  0.00     0.160 A 
HETATM   11  N   LIG     1      17.539  36.815  22.145  1.00  0.00    -0.329 N 
HETATM   12  H   LIG     1      17.248  35.811  22.173  1.00  0.00     0.168 HD
ENDROOT
TORSDOF 0
ENDMDL
MODEL 15
REMARK VINA RESULT:      -4.5      1.636      2.451
REMARK  0 active torsions:
REMARK  status: ('A' for Active; 'I' for Inactive)
ROOT
HETATM    1  S   LIG     1      15.353  32.862  19.540  1.00  0.00    -0.059 SA
HETATM    2  C   LIG     1      15.666  34.230  20.386  1.00  0.00     0.119 A 
HETATM    3  C   LIG     1      14.849  34.590  21.468  1.00  0.00     0.159 A 
HETATM    4  N   LIG     1      15.117  35.726  22.164  1.00  0.00    -0.253 NA
HETATM    5  C   LIG     1      16.165  36.518  21.825  1.00  0.00     0.120 A 
HETATM    6  C   LIG     1      16.454  37.688  22.527  1.00  0.00     0.153 A 
HETATM    7  N   LIG     1      17.514  38.452  22.152  1.00  0.00    -0.252 NA
HETATM    8  C   LIG     1      18.300  38.095  21.101  1.00  0.00     0.235 A 
HETATM    9  N   LIG     1      18.036  36.958  20.402  1.00  0.00    -0.222 NA
HETATM   10  C   LIG     1      16.986  36.164  20.741  1.00  0.00     0.160 A 
HETATM   11  N   LIG     1      16.719  35.025  20.044  1.00  0.00    -0.329 N 
HETATM   12  H   LIG     1      17.332  34.764  19.238  1.00  0.00     0.168 HD
ENDROOT
TORSDOF 0
ENDMDL
MODEL 16
REMARK VINA RESULT:      -4.4      2.737      3.228
REMARK  0 active torsions:
REMARK  status: ('A' for Active; 'I' for Inactive)
ROOT
HETATM    1  S   LIG     1      17.142  34.776  26.204  1.00  0.00    -0.059 SA
HETATM    2  C   LIG     1      17.338  36.022  25.159  1.00  0.00     0.119 A 
HETATM    3  C   LIG     1      17.501  37.327  25.645  1.00  0.00     0.159 A 
HETATM    4  N   LIG     1      17.664  38.354  24.770  1.00  0.00    -0.253 NA
HETATM    5  C   LIG     1      17.672  38.133  23.431  1.00  0.00     0.120 A 
HETATM    6  C   LIG     1      17.837  39.175  22.519  1.00  0.00     0.153 A 
HETATM    7  N   LIG     1      17.838  38.908  21.187  1.00  0.00    -0.252 NA
HETATM    8  C   LIG     1      17.679  37.638  20.725  1.00  0.00     0.235 A 
HETATM    9  N   LIG     1      17.516  36.607  21.598  1.00  0.00    -0.222 NA
HETATM   10  C   LIG     1      17.509  36.828  22.939  1.00  0.00     0.160 A 
HETATM   11  N   LIG     1      17.346  35.798  23.815  1.00  0.00    -0.329 N 
HETATM   12  H   LIG     1      17.225  34.827  23.445  1.00  0.00     0.168 HD
ENDROOT
TORSDOF 0
ENDMDL
MODEL 17
REMARK VINA RESULT:      -4.4      5.014      6.866
REMARK  0 active torsions:
REMARK  status: ('A' for Active; 'I' for Inactive)
ROOT
HETATM    1  S   LIG     1      15.853  34.704  21.345  1.00  0.00    -0.059 SA
HETATM    2  C   LIG     1      15.380  33.666  20.170  1.00  0.00     0.119 A 
HETATM    3  C   LIG     1      14.714  32.478  20.507  1.00  0.00     0.159 A 
HETATM    4  N   LIG     1      14.326  31.624  19.524  1.00  0.00    -0.253 NA
HETATM    5  C   LIG     1      14.574  31.905  18.220  1.00  0.00     0.120 A 
HETATM    6  C   LIG     1      14.183  31.038  17.199  1.00  0.00     0.153 A 
HETATM    7  N   LIG     1      14.452  31.360  15.906  1.00  0.00    -0.252 NA
HETATM    8  C   LIG     1      15.099  32.514  15.589  1.00  0.00     0.235 A 
HETATM    9  N   LIG     1      15.489  33.373  16.569  1.00  0.00    -0.222 NA
HETATM   10  C   LIG     1      15.241  33.092  17.876  1.00  0.00     0.160 A 
HETATM   11  N   LIG     1      15.630  33.950  18.859  1.00  0.00    -0.329 N 
HETATM   12  H   LIG     1      16.126  34.833  18.601  1.00  0.00     0.168 HD
ENDROOT
TORSDOF 0
ENDMDL
MODEL 18
REMARK VINA RESULT:      -4.3      4.531      6.547
REMARK  0 active torsions:
REMARK  status: ('A' for Active; 'I' for Inactive)
ROOT
HETATM    1  S   LIG     1      16.025  34.812  21.897  1.00  0.00    -0.059 SA
HETATM    2  C   LIG     1      15.688  34.309  20.374  1.00  0.00     0.119 A 
HETATM    3  C   LIG     1      15.974  35.140  19.281  1.00  0.00     0.159 A 
HETATM    4  N   LIG     1      15.691  34.714  18.022  1.00  0.00    -0.253 NA
HETATM    5  C   LIG     1      15.135  33.494  17.808  1.00  0.00     0.120 A 
HETATM    6  C   LIG     1      14.838  33.042  16.523  1.00  0.00     0.153 A 
HETATM    7  N   LIG     1      14.281  31.813  16.356  1.00  0.00    -0.252 NA
HETATM    8  C   LIG     1      14.007  31.015  17.423  1.00  0.00     0.235 A 
HETATM    9  N   LIG     1      14.289  31.437  18.685  1.00  0.00    -0.222 NA
HETATM   10  C   LIG     1      14.846  32.658  18.899  1.00  0.00     0.160 A 
HETATM   11  N   LIG     1      15.130  33.084  20.161  1.00  0.00    -0.329 N 
HETATM   12  H   LIG     1      14.914  32.459  20.972  1.00  0.00     0.168 HD
ENDROOT
TORSDOF 0
ENDMDL
MODEL 19
REMARK VINA RESULT:      -4.0      7.853      9.497
REMARK  0 active torsions:
REMARK  status: ('A' for Active; 'I' for Inactive)
ROOT
HETATM    1  S   LIG     1      18.019  33.570  14.404  1.00  0.00    -0.059 SA
HETATM    2  C   LIG     1      16.669  32.792  14.909  1.00  0.00     0.119 A 
HETATM    3  C   LIG     1      16.018  33.205  16.081  1.00  0.00     0.159 A 
HETATM    4  N   LIG     1      14.898  32.553  16.492  1.00  0.00    -0.253 NA
HETATM    5  C   LIG     1      14.401  31.508  15.783  1.00  0.00     0.120 A 
HETATM    6  C   LIG     1      13.254  30.828  16.191  1.00  0.00     0.153 A 
HETATM    7  N   LIG     1      12.791  29.787  15.450  1.00  0.00    -0.252 NA
HETATM    8  C   LIG     1      13.430  29.394  14.315  1.00  0.00     0.235 A 
HETATM    9  N   LIG     1      14.551  30.043  13.900  1.00  0.00    -0.222 NA
HETATM   10  C   LIG     1      15.049  31.090  14.609  1.00  0.00     0.160 A 
HETATM   11  N   LIG     1      16.171  31.742  14.196  1.00  0.00    -0.329 N 
HETATM   12  H   LIG     1      16.652  31.429  13.321  1.00  0.00     0.168 HD
ENDROOT
TORSDOF 0
ENDMDL
MODEL 20
REMARK VINA RESULT:      -4.0      2.950      3.721
REMARK  0 active torsions:
REMARK  status: ('A' for Active; 'I' for Inactive)
ROOT
HETATM    1  S   LIG     1      18.153  36.335  26.993  1.00  0.00    -0.059 SA
HETATM    2  C   LIG     1      17.924  36.655  25.403  1.00  0.00     0.119 A 
HETATM    3  C   LIG     1      17.202  35.759  24.602  1.00  0.00     0.159 A 
HETATM    4  N   LIG     1      17.017  36.034  23.284  1.00  0.00    -0.253 NA
HETATM    5  C   LIG     1      17.524  37.165  22.732  1.00  0.00     0.120 A 
HETATM    6  C   LIG     1      17.345  37.463  21.381  1.00  0.00     0.153 A 
HETATM    7  N   LIG     1      17.870  38.608  20.870  1.00  0.00    -0.252 NA
HETATM    8  C   LIG     1      18.570  39.471  21.655  1.00  0.00     0.235 A 
HETATM    9  N   LIG     1      18.756  39.200  22.975  1.00  0.00    -0.222 NA
HETATM   10  C   LIG     1      18.249  38.067  23.529  1.00  0.00     0.160 A 
HETATM   11  N   LIG     1      18.434  37.792  24.849  1.00  0.00    -0.329 N 
HETATM   12  H   LIG     1      18.974  38.465  25.441  1.00  0.00     0.168 HD
ENDROOT
TORSDOF 0
ENDMDL
