REMARK  2 active torsions:
REMARK  status: ('A' for Active; 'I' for Inactive)
REMARK    1  A    between atoms: O_2  and  C_3 
REMARK    2  A    between atoms: C_9  and  O_18 
ROOT
HETATM    1  C   LIG     1      -0.119  -1.395   0.293  1.00  0.00     0.138 A 
HETATM    2  C   LIG     1      -1.442  -0.973   0.120  1.00  0.00     0.124 A 
HETATM    3  O   LIG     1      -2.524  -1.708   0.212  1.00  0.00    -0.319 OA
HETATM    4  C   LIG     1      -3.563  -0.938  -0.018  1.00  0.00     0.143 A 
HETATM    5  C   LIG     1      -3.150   0.358  -0.272  1.00  0.00     0.042 A 
HETATM    6  C   LIG     1      -1.766   0.333  -0.181  1.00  0.00     0.037 A 
HETATM    7  C   LIG     1      -0.772   1.329  -0.334  1.00  0.00     0.098 A 
HETATM    8  C   LIG     1       0.585   0.924  -0.163  1.00  0.00     0.085 A 
HETATM    9  C   LIG     1       0.895  -0.435   0.149  1.00  0.00     0.128 A 
HETATM   10  O   LIG     1       2.160  -0.816   0.309  1.00  0.00    -0.311 OA
HETATM   11  C   LIG     1       3.189   0.015   0.194  1.00  0.00     0.053 A 
HETATM   12  C   LIG     1       4.578  -0.499   0.391  1.00  0.00     0.077 C 
HETATM   13  C   LIG     1       2.974   1.361  -0.109  1.00  0.00     0.088 A 
HETATM   14  C   LIG     1       1.670   1.822  -0.289  1.00  0.00     0.190 A 
HETATM   15  O   LIG     1       1.493   3.040  -0.562  1.00  0.00    -0.287 OA
ENDROOT
BRANCH   1  16
HETATM   16  O   LIG     1       0.240  -2.718   0.600  1.00  0.00    -0.351 OA
HETATM   17  C   LIG     1      -0.673  -3.795   0.776  1.00  0.00     0.210 C 
ENDBRANCH   1  16
BRANCH   7  18
HETATM   18  O   LIG     1      -1.042   2.677  -0.641  1.00  0.00    -0.354 OA
HETATM   19  C   LIG     1      -2.314   3.274  -0.848  1.00  0.00     0.210 C 
ENDBRANCH   7  18
TORSDOF 2
