MODEL 1
REMARK VINA RESULT:      -7.2      0.000      0.000
REMARK  2 active torsions:
REMARK  status: ('A' for Active; 'I' for Inactive)
REMARK    1  A    between atoms: O_2  and  C_3 
REMARK    2  A    between atoms: C_9  and  O_18 
ROOT
HETATM    1  C   LIG     1      15.527  31.129  14.266  1.00  0.00     0.138 A 
HETATM    2  C   LIG     1      14.628  31.151  15.338  1.00  0.00     0.124 A 
HETATM    3  O   LIG     1      13.739  30.236  15.642  1.00  0.00    -0.319 OA
HETATM    4  C   LIG     1      13.096  30.631  16.717  1.00  0.00     0.143 A 
HETATM    5  C   LIG     1      13.580  31.857  17.140  1.00  0.00     0.042 A 
HETATM    6  C   LIG     1      14.580  32.194  16.239  1.00  0.00     0.037 A 
HETATM    7  C   LIG     1      15.443  33.310  16.130  1.00  0.00     0.098 A 
HETATM    8  C   LIG     1      16.368  33.313  15.045  1.00  0.00     0.085 A 
HETATM    9  C   LIG     1      16.399  32.220  14.125  1.00  0.00     0.128 A 
HETATM   10  O   LIG     1      17.262  32.220  13.111  1.00  0.00    -0.311 OA
HETATM   11  C   LIG     1      18.126  33.203  12.893  1.00  0.00     0.053 A 
HETATM   12  C   LIG     1      19.060  33.119  11.729  1.00  0.00     0.077 C 
HETATM   13  C   LIG     1      18.163  34.309  13.745  1.00  0.00     0.088 A 
HETATM   14  C   LIG     1      17.283  34.368  14.826  1.00  0.00     0.190 A 
HETATM   15  O   LIG     1      17.329  35.373  15.586  1.00  0.00    -0.287 OA
ENDROOT
BRANCH   1  16
HETATM   16  O   LIG     1      15.598  30.081  13.333  1.00  0.00    -0.351 OA
HETATM   17  C   LIG     1      15.441  28.700  13.639  1.00  0.00     0.210 C 
ENDBRANCH   1  16
BRANCH   7  18
HETATM   18  O   LIG     1      15.439  34.404  17.019  1.00  0.00    -0.354 OA
HETATM   19  C   LIG     1      15.487  34.359  18.437  1.00  0.00     0.210 C 
ENDBRANCH   7  18
TORSDOF 2
ENDMDL
MODEL 2
REMARK VINA RESULT:      -4.5     14.256     15.393
REMARK  2 active torsions:
REMARK  status: ('A' for Active; 'I' for Inactive)
REMARK    1  A    between atoms: O_2  and  C_3 
REMARK    2  A    between atoms: C_9  and  O_18 
ROOT
HETATM    1  C   LIG     1      23.901  22.096  21.683  1.00  0.00     0.138 A 
HETATM    2  C   LIG     1      23.789  22.038  20.289  1.00  0.00     0.124 A 
HETATM    3  O   LIG     1      22.785  21.559  19.596  1.00  0.00    -0.319 OA
HETATM    4  C   LIG     1      23.068  21.690  18.320  1.00  0.00     0.143 A 
HETATM    5  C   LIG     1      24.310  22.279  18.165  1.00  0.00     0.042 A 
HETATM    6  C   LIG     1      24.779  22.506  19.451  1.00  0.00     0.037 A 
HETATM    7  C   LIG     1      25.973  23.076  19.955  1.00  0.00     0.098 A 
HETATM    8  C   LIG     1      26.111  23.146  21.373  1.00  0.00     0.085 A 
HETATM    9  C   LIG     1      25.071  22.655  22.220  1.00  0.00     0.128 A 
HETATM   10  O   LIG     1      25.197  22.719  23.544  1.00  0.00    -0.311 OA
HETATM   11  C   LIG     1      26.263  23.228  24.148  1.00  0.00     0.053 A 
HETATM   12  C   LIG     1      26.320  23.261  25.641  1.00  0.00     0.077 C 
HETATM   13  C   LIG     1      27.325  23.731  23.393  1.00  0.00     0.088 A 
HETATM   14  C   LIG     1      27.254  23.692  22.001  1.00  0.00     0.190 A 
HETATM   15  O   LIG     1      28.221  24.150  21.334  1.00  0.00    -0.287 OA
ENDROOT
BRANCH   1  16
HETATM   16  O   LIG     1      22.909  21.628  22.561  1.00  0.00    -0.351 OA
HETATM   17  C   LIG     1      22.724  20.268  22.938  1.00  0.00     0.210 C 
ENDBRANCH   1  16
BRANCH   7  18
HETATM   18  O   LIG     1      27.017  23.569  19.148  1.00  0.00    -0.354 OA
HETATM   19  C   LIG     1      26.946  24.626  18.201  1.00  0.00     0.210 C 
ENDBRANCH   7  18
TORSDOF 2
ENDMDL
MODEL 3
REMARK VINA RESULT:      -4.4     14.343     15.433
REMARK  2 active torsions:
REMARK  status: ('A' for Active; 'I' for Inactive)
REMARK    1  A    between atoms: O_2  and  C_3 
REMARK    2  A    between atoms: C_9  and  O_18 
ROOT
HETATM    1  C   LIG     1      26.002  23.243  20.154  1.00  0.00     0.138 A 
HETATM    2  C   LIG     1      24.858  22.645  19.614  1.00  0.00     0.124 A 
HETATM    3  O   LIG     1      24.549  22.535  18.345  1.00  0.00    -0.319 OA
HETATM    4  C   LIG     1      23.397  21.910  18.257  1.00  0.00     0.143 A 
HETATM    5  C   LIG     1      22.927  21.594  19.519  1.00  0.00     0.042 A 
HETATM    6  C   LIG     1      23.882  22.074  20.403  1.00  0.00     0.037 A 
HETATM    7  C   LIG     1      23.981  22.061  21.815  1.00  0.00     0.098 A 
HETATM    8  C   LIG     1      25.138  22.666  22.391  1.00  0.00     0.085 A 
HETATM    9  C   LIG     1      26.135  23.250  21.552  1.00  0.00     0.128 A 
HETATM   10  O   LIG     1      27.216  23.815  22.086  1.00  0.00    -0.311 OA
HETATM   11  C   LIG     1      27.434  23.872  23.394  1.00  0.00     0.053 A 
HETATM   12  C   LIG     1      28.676  24.526  23.907  1.00  0.00     0.077 C 
HETATM   13  C   LIG     1      26.509  23.325  24.285  1.00  0.00     0.088 A 
HETATM   14  C   LIG     1      25.356  22.719  23.787  1.00  0.00     0.190 A 
HETATM   15  O   LIG     1      24.530  22.229  24.605  1.00  0.00    -0.287 OA
ENDROOT
BRANCH   1  16
HETATM   16  O   LIG     1      27.012  23.832  19.375  1.00  0.00    -0.351 OA
HETATM   17  C   LIG     1      26.938  25.119  18.774  1.00  0.00     0.210 C 
ENDBRANCH   1  16
BRANCH   7  18
HETATM   18  O   LIG     1      23.017  21.494  22.672  1.00  0.00    -0.354 OA
HETATM   19  C   LIG     1      22.691  20.119  22.809  1.00  0.00     0.210 C 
ENDBRANCH   7  18
TORSDOF 2
ENDMDL
MODEL 4
REMARK VINA RESULT:      -4.4     14.076     15.231
REMARK  2 active torsions:
REMARK  status: ('A' for Active; 'I' for Inactive)
REMARK    1  A    between atoms: O_2  and  C_3 
REMARK    2  A    between atoms: C_9  and  O_18 
ROOT
HETATM    1  C   LIG     1      25.329  22.721  22.530  1.00  0.00     0.138 A 
HETATM    2  C   LIG     1      24.387  21.736  22.849  1.00  0.00     0.124 A 
HETATM    3  O   LIG     1      24.114  21.260  24.039  1.00  0.00    -0.319 OA
HETATM    4  C   LIG     1      23.172  20.353  23.912  1.00  0.00     0.143 A 
HETATM    5  C   LIG     1      22.810  20.225  22.583  1.00  0.00     0.042 A 
HETATM    6  C   LIG     1      23.603  21.128  21.891  1.00  0.00     0.037 A 
HETATM    7  C   LIG     1      23.707  21.468  20.521  1.00  0.00     0.098 A 
HETATM    8  C   LIG     1      24.660  22.469  20.170  1.00  0.00     0.085 A 
HETATM    9  C   LIG     1      25.461  23.084  21.181  1.00  0.00     0.128 A 
HETATM   10  O   LIG     1      26.351  24.019  20.857  1.00  0.00    -0.311 OA
HETATM   11  C   LIG     1      26.550  24.431  19.611  1.00  0.00     0.053 A 
HETATM   12  C   LIG     1      27.572  25.487  19.338  1.00  0.00     0.077 C 
HETATM   13  C   LIG     1      25.809  23.882  18.562  1.00  0.00     0.088 A 
HETATM   14  C   LIG     1      24.860  22.898  18.837  1.00  0.00     0.190 A 
HETATM   15  O   LIG     1      24.200  22.412  17.879  1.00  0.00    -0.287 OA
ENDROOT
BRANCH   1  16
HETATM   16  O   LIG     1      26.141  23.356  23.485  1.00  0.00    -0.351 OA
HETATM   17  C   LIG     1      27.308  22.794  24.072  1.00  0.00     0.210 C 
ENDBRANCH   1  16
BRANCH   7  18
HETATM   18  O   LIG     1      22.934  20.882  19.499  1.00  0.00    -0.354 OA
HETATM   19  C   LIG     1      22.959  19.528  19.070  1.00  0.00     0.210 C 
ENDBRANCH   7  18
TORSDOF 2
ENDMDL
MODEL 5
REMARK VINA RESULT:      -4.3     14.217     15.415
REMARK  2 active torsions:
REMARK  status: ('A' for Active; 'I' for Inactive)
REMARK    1  A    between atoms: O_2  and  C_3 
REMARK    2  A    between atoms: C_9  and  O_18 
ROOT
HETATM    1  C   LIG     1      23.441  20.945  22.251  1.00  0.00     0.138 A 
HETATM    2  C   LIG     1      24.149  21.658  23.225  1.00  0.00     0.124 A 
HETATM    3  O   LIG     1      24.032  21.546  24.527  1.00  0.00    -0.319 OA
HETATM    4  C   LIG     1      24.871  22.387  25.087  1.00  0.00     0.143 A 
HETATM    5  C   LIG     1      25.569  23.083  24.116  1.00  0.00     0.042 A 
HETATM    6  C   LIG     1      25.097  22.606  22.902  1.00  0.00     0.037 A 
HETATM    7  C   LIG     1      25.411  22.914  21.557  1.00  0.00     0.098 A 
HETATM    8  C   LIG     1      24.703  22.202  20.545  1.00  0.00     0.085 A 
HETATM    9  C   LIG     1      23.725  21.224  20.905  1.00  0.00     0.128 A 
HETATM   10  O   LIG     1      23.063  20.558  19.963  1.00  0.00    -0.311 OA
HETATM   11  C   LIG     1      23.259  20.749  18.664  1.00  0.00     0.053 A 
HETATM   12  C   LIG     1      22.470  19.955  17.674  1.00  0.00     0.077 C 
HETATM   13  C   LIG     1      24.197  21.686  18.226  1.00  0.00     0.088 A 
HETATM   14  C   LIG     1      24.924  22.417  19.165  1.00  0.00     0.190 A 
HETATM   15  O   LIG     1      25.767  23.259  18.753  1.00  0.00    -0.287 OA
ENDROOT
BRANCH   1  16
HETATM   16  O   LIG     1      22.470  19.975  22.551  1.00  0.00    -0.351 OA
HETATM   17  C   LIG     1      22.739  18.607  22.833  1.00  0.00     0.210 C 
ENDBRANCH   1  16
BRANCH   7  18
HETATM   18  O   LIG     1      26.369  23.871  21.167  1.00  0.00    -0.354 OA
HETATM   19  C   LIG     1      27.768  23.835  21.407  1.00  0.00     0.210 C 
ENDBRANCH   7  18
TORSDOF 2
ENDMDL
MODEL 6
REMARK VINA RESULT:      -4.3     13.594     15.446
REMARK  2 active torsions:
REMARK  status: ('A' for Active; 'I' for Inactive)
REMARK    1  A    between atoms: O_2  and  C_3 
REMARK    2  A    between atoms: C_9  and  O_18 
ROOT
HETATM    1  C   LIG     1      23.655  20.203  17.789  1.00  0.00     0.138 A 
HETATM    2  C   LIG     1      24.679  19.789  16.929  1.00  0.00     0.124 A 
HETATM    3  O   LIG     1      24.586  18.924  15.948  1.00  0.00    -0.319 OA
HETATM    4  C   LIG     1      25.768  18.814  15.386  1.00  0.00     0.143 A 
HETATM    5  C   LIG     1      26.678  19.640  16.022  1.00  0.00     0.042 A 
HETATM    6  C   LIG     1      25.965  20.276  17.028  1.00  0.00     0.037 A 
HETATM    7  C   LIG     1      26.327  21.227  18.011  1.00  0.00     0.098 A 
HETATM    8  C   LIG     1      25.300  21.665  18.900  1.00  0.00     0.085 A 
HETATM    9  C   LIG     1      23.975  21.146  18.777  1.00  0.00     0.128 A 
HETATM   10  O   LIG     1      23.015  21.552  19.605  1.00  0.00    -0.311 OA
HETATM   11  C   LIG     1      23.217  22.440  20.572  1.00  0.00     0.053 A 
HETATM   12  C   LIG     1      22.080  22.839  21.455  1.00  0.00     0.077 C 
HETATM   13  C   LIG     1      24.483  22.997  20.760  1.00  0.00     0.088 A 
HETATM   14  C   LIG     1      25.532  22.611  19.925  1.00  0.00     0.190 A 
HETATM   15  O   LIG     1      26.669  23.124  20.108  1.00  0.00    -0.287 OA
ENDROOT
BRANCH   1  16
HETATM   16  O   LIG     1      22.336  19.724  17.711  1.00  0.00    -0.351 OA
HETATM   17  C   LIG     1      21.885  18.476  18.225  1.00  0.00     0.210 C 
ENDBRANCH   1  16
BRANCH   7  18
HETATM   18  O   LIG     1      27.622  21.759  18.160  1.00  0.00    -0.354 OA
HETATM   19  C   LIG     1      28.334  22.564  17.232  1.00  0.00     0.210 C 
ENDBRANCH   7  18
TORSDOF 2
ENDMDL
