REMARK  6 active torsions:
REMARK  status: ('A' for Active; 'I' for Inactive)
REMARK    1  A    between atoms: C_2  and  C_3 
REMARK    2  A    between atoms: C_3  and  C_4 
REMARK    3  A    between atoms: C_4  and  C_5 
REMARK    4  A    between atoms: C_5  and  C_6 
REMARK    5  A    between atoms: C_6  and  C_7 
REMARK    6  A    between atoms: C_7  and  C_8 
ROOT
HETATM    1  C   LIG     1      -1.283  -0.484  -0.050  1.00  0.00     0.007 C 
ENDROOT
BRANCH   1   2
HETATM    2  C   LIG     1      -2.386  -1.066   0.846  1.00  0.00     0.077 C 
BRANCH   2   3
HETATM    3  C   LIG     1      -3.066  -0.003   1.670  1.00  0.00     0.123 C 
HETATM    4  C   LIG     1      -4.034   0.957   1.046  1.00  0.00     0.091 C 
HETATM    5  O   LIG     1      -2.808   0.096   2.860  1.00  0.00    -0.298 OA
ENDBRANCH   2   3
ENDBRANCH   1   2
BRANCH   1   6
HETATM    6  C   LIG     1      -0.081   0.022   0.767  1.00  0.00     0.000 C 
BRANCH   6   7
HETATM    7  C   LIG     1       1.002   0.670  -0.112  1.00  0.00     0.000 C 
BRANCH   7   8
HETATM    8  C   LIG     1       1.818  -0.366  -0.904  1.00  0.00    -0.000 C 
BRANCH   8   9
HETATM    9  C   LIG     1       2.902   0.283  -1.778  1.00  0.00    -0.005 C 
HETATM   10  C   LIG     1       4.076   0.826  -0.963  1.00  0.00     0.005 C 
ENDBRANCH   8   9
ENDBRANCH   7   8
ENDBRANCH   6   7
ENDBRANCH   1   6
TORSDOF 6
