MODEL 1
REMARK VINA RESULT:      -6.2      0.000      0.000
REMARK  6 active torsions:
REMARK  status: ('A' for Active; 'I' for Inactive)
REMARK    1  A    between atoms: C_2  and  C_3 
REMARK    2  A    between atoms: C_3  and  C_4 
REMARK    3  A    between atoms: C_4  and  C_5 
REMARK    4  A    between atoms: C_5  and  C_6 
REMARK    5  A    between atoms: C_6  and  C_7 
REMARK    6  A    between atoms: C_7  and  C_8 
ROOT
HETATM    1  C   LIG     1      17.743  38.172  21.776  1.00  0.00     0.007 C 
ENDROOT
BRANCH   1   2
HETATM    2  C   LIG     1      18.687  39.241  21.206  1.00  0.00     0.077 C 
BRANCH   2   3
HETATM    3  C   LIG     1      19.456  38.738  20.011  1.00  0.00     0.123 C 
HETATM    4  C   LIG     1      19.247  37.349  19.486  1.00  0.00     0.091 C 
HETATM    5  O   LIG     1      20.280  39.463  19.474  1.00  0.00    -0.298 OA
ENDBRANCH   2   3
ENDBRANCH   1   2
BRANCH   1   6
HETATM    6  C   LIG     1      17.218  38.551  23.172  1.00  0.00     0.000 C 
BRANCH   6   7
HETATM    7  C   LIG     1      17.106  37.338  24.112  1.00  0.00     0.000 C 
BRANCH   7   8
HETATM    8  C   LIG     1      17.473  37.681  25.566  1.00  0.00    -0.000 C 
BRANCH   8   9
HETATM    9  C   LIG     1      18.452  36.669  26.179  1.00  0.00    -0.005 C 
HETATM   10  C   LIG     1      17.941  35.230  26.108  1.00  0.00     0.005 C 
ENDBRANCH   8   9
ENDBRANCH   7   8
ENDBRANCH   6   7
ENDBRANCH   1   6
TORSDOF 6
ENDMDL
MODEL 2
REMARK VINA RESULT:      -6.0      2.094      2.509
REMARK  6 active torsions:
REMARK  status: ('A' for Active; 'I' for Inactive)
REMARK    1  A    between atoms: C_2  and  C_3 
REMARK    2  A    between atoms: C_3  and  C_4 
REMARK    3  A    between atoms: C_4  and  C_5 
REMARK    4  A    between atoms: C_5  and  C_6 
REMARK    5  A    between atoms: C_6  and  C_7 
REMARK    6  A    between atoms: C_7  and  C_8 
ROOT
HETATM    1  C   LIG     1      16.699  38.011  22.794  1.00  0.00     0.007 C 
ENDROOT
BRANCH   1   2
HETATM    2  C   LIG     1      17.526  37.622  21.560  1.00  0.00     0.077 C 
BRANCH   2   3
HETATM    3  C   LIG     1      17.280  36.196  21.140  1.00  0.00     0.123 C 
HETATM    4  C   LIG     1      16.992  35.130  22.155  1.00  0.00     0.091 C 
HETATM    5  O   LIG     1      17.339  35.895  19.958  1.00  0.00    -0.298 OA
ENDBRANCH   2   3
ENDBRANCH   1   2
BRANCH   1   6
HETATM    6  C   LIG     1      17.588  38.442  23.974  1.00  0.00     0.000 C 
BRANCH   6   7
HETATM    7  C   LIG     1      17.296  37.646  25.257  1.00  0.00     0.000 C 
BRANCH   7   8
HETATM    8  C   LIG     1      18.571  37.077  25.903  1.00  0.00    -0.000 C 
BRANCH   8   9
HETATM    9  C   LIG     1      18.317  35.754  26.640  1.00  0.00    -0.005 C 
HETATM   10  C   LIG     1      17.404  34.806  25.862  1.00  0.00     0.005 C 
ENDBRANCH   8   9
ENDBRANCH   7   8
ENDBRANCH   6   7
ENDBRANCH   1   6
TORSDOF 6
ENDMDL
MODEL 3
REMARK VINA RESULT:      -5.6      1.957      2.339
REMARK  6 active torsions:
REMARK  status: ('A' for Active; 'I' for Inactive)
REMARK    1  A    between atoms: C_2  and  C_3 
REMARK    2  A    between atoms: C_3  and  C_4 
REMARK    3  A    between atoms: C_4  and  C_5 
REMARK    4  A    between atoms: C_5  and  C_6 
REMARK    5  A    between atoms: C_6  and  C_7 
REMARK    6  A    between atoms: C_7  and  C_8 
ROOT
HETATM    1  C   LIG     1      16.587  37.068  22.043  1.00  0.00     0.007 C 
ENDROOT
BRANCH   1   2
HETATM    2  C   LIG     1      17.806  37.628  21.295  1.00  0.00     0.077 C 
BRANCH   2   3
HETATM    3  C   LIG     1      18.203  36.760  20.129  1.00  0.00     0.123 C 
HETATM    4  C   LIG     1      19.573  36.852  19.528  1.00  0.00     0.091 C 
HETATM    5  O   LIG     1      17.389  35.986  19.647  1.00  0.00    -0.298 OA
ENDBRANCH   2   3
ENDBRANCH   1   2
BRANCH   1   6
HETATM    6  C   LIG     1      16.939  35.817  22.867  1.00  0.00     0.000 C 
BRANCH   6   7
HETATM    7  C   LIG     1      17.160  36.132  24.356  1.00  0.00     0.000 C 
BRANCH   7   8
HETATM    8  C   LIG     1      17.309  34.863  25.213  1.00  0.00    -0.000 C 
BRANCH   8   9
HETATM    9  C   LIG     1      18.303  35.047  26.369  1.00  0.00    -0.005 C 
HETATM   10  C   LIG     1      18.610  36.516  26.661  1.00  0.00     0.005 C 
ENDBRANCH   8   9
ENDBRANCH   7   8
ENDBRANCH   6   7
ENDBRANCH   1   6
TORSDOF 6
ENDMDL
MODEL 4
REMARK VINA RESULT:      -5.6      2.720      5.556
REMARK  6 active torsions:
REMARK  status: ('A' for Active; 'I' for Inactive)
REMARK    1  A    between atoms: C_2  and  C_3 
REMARK    2  A    between atoms: C_3  and  C_4 
REMARK    3  A    between atoms: C_4  and  C_5 
REMARK    4  A    between atoms: C_5  and  C_6 
REMARK    5  A    between atoms: C_6  and  C_7 
REMARK    6  A    between atoms: C_7  and  C_8 
ROOT
HETATM    1  C   LIG     1      18.094  38.055  24.281  1.00  0.00     0.007 C 
ENDROOT
BRANCH   1   2
HETATM    2  C   LIG     1      17.392  37.628  25.578  1.00  0.00     0.077 C 
BRANCH   2   3
HETATM    3  C   LIG     1      17.929  36.325  26.111  1.00  0.00     0.123 C 
HETATM    4  C   LIG     1      17.510  35.015  25.513  1.00  0.00     0.091 C 
HETATM    5  O   LIG     1      18.698  36.331  27.059  1.00  0.00    -0.298 OA
ENDBRANCH   2   3
ENDBRANCH   1   2
BRANCH   1   6
HETATM    6  C   LIG     1      17.241  37.755  23.036  1.00  0.00     0.000 C 
BRANCH   6   7
HETATM    7  C   LIG     1      17.383  38.832  21.947  1.00  0.00     0.000 C 
BRANCH   7   8
HETATM    8  C   LIG     1      18.838  39.017  21.486  1.00  0.00    -0.000 C 
BRANCH   8   9
HETATM    9  C   LIG     1      19.012  38.778  19.978  1.00  0.00    -0.005 C 
HETATM   10  C   LIG     1      19.060  37.294  19.614  1.00  0.00     0.005 C 
ENDBRANCH   8   9
ENDBRANCH   7   8
ENDBRANCH   6   7
ENDBRANCH   1   6
TORSDOF 6
ENDMDL
MODEL 5
REMARK VINA RESULT:      -5.5      1.886      2.732
REMARK  6 active torsions:
REMARK  status: ('A' for Active; 'I' for Inactive)
REMARK    1  A    between atoms: C_2  and  C_3 
REMARK    2  A    between atoms: C_3  and  C_4 
REMARK    3  A    between atoms: C_4  and  C_5 
REMARK    4  A    between atoms: C_5  and  C_6 
REMARK    5  A    between atoms: C_6  and  C_7 
REMARK    6  A    between atoms: C_7  and  C_8 
ROOT
HETATM    1  C   LIG     1      17.771  38.857  21.577  1.00  0.00     0.007 C 
ENDROOT
BRANCH   1   2
HETATM    2  C   LIG     1      19.182  39.213  21.085  1.00  0.00     0.077 C 
BRANCH   2   3
HETATM    3  C   LIG     1      19.499  38.567  19.761  1.00  0.00     0.123 C 
HETATM    4  C   LIG     1      19.218  37.114  19.522  1.00  0.00     0.091 C 
HETATM    5  O   LIG     1      20.017  39.229  18.874  1.00  0.00    -0.298 OA
ENDBRANCH   2   3
ENDBRANCH   1   2
BRANCH   1   6
HETATM    6  C   LIG     1      17.765  38.426  23.054  1.00  0.00     0.000 C 
BRANCH   6   7
HETATM    7  C   LIG     1      16.861  37.208  23.312  1.00  0.00     0.000 C 
BRANCH   7   8
HETATM    8  C   LIG     1      16.333  36.578  22.012  1.00  0.00    -0.000 C 
BRANCH   8   9
HETATM    9  C   LIG     1      16.816  35.132  21.821  1.00  0.00    -0.005 C 
HETATM   10  C   LIG     1      16.016  34.374  20.761  1.00  0.00     0.005 C 
ENDBRANCH   8   9
ENDBRANCH   7   8
ENDBRANCH   6   7
ENDBRANCH   1   6
TORSDOF 6
ENDMDL
MODEL 6
REMARK VINA RESULT:      -5.4      3.044      5.061
REMARK  6 active torsions:
REMARK  status: ('A' for Active; 'I' for Inactive)
REMARK    1  A    between atoms: C_2  and  C_3 
REMARK    2  A    between atoms: C_3  and  C_4 
REMARK    3  A    between atoms: C_4  and  C_5 
REMARK    4  A    between atoms: C_5  and  C_6 
REMARK    5  A    between atoms: C_6  and  C_7 
REMARK    6  A    between atoms: C_7  and  C_8 
ROOT
HETATM    1  C   LIG     1      18.050  38.261  24.045  1.00  0.00     0.007 C 
ENDROOT
BRANCH   1   2
HETATM    2  C   LIG     1      17.150  37.647  25.128  1.00  0.00     0.077 C 
BRANCH   2   3
HETATM    3  C   LIG     1      17.649  36.299  25.581  1.00  0.00     0.123 C 
HETATM    4  C   LIG     1      18.480  36.159  26.822  1.00  0.00     0.091 C 
HETATM    5  O   LIG     1      17.395  35.306  24.917  1.00  0.00    -0.298 OA
ENDBRANCH   2   3
ENDBRANCH   1   2
BRANCH   1   6
HETATM    6  C   LIG     1      17.258  38.633  22.779  1.00  0.00     0.000 C 
BRANCH   6   7
HETATM    7  C   LIG     1      16.405  37.468  22.249  1.00  0.00     0.000 C 
BRANCH   7   8
HETATM    8  C   LIG     1      17.211  36.500  21.366  1.00  0.00    -0.000 C 
BRANCH   8   9
HETATM    9  C   LIG     1      16.802  35.034  21.575  1.00  0.00    -0.005 C 
HETATM   10  C   LIG     1      15.302  34.804  21.384  1.00  0.00     0.005 C 
ENDBRANCH   8   9
ENDBRANCH   7   8
ENDBRANCH   6   7
ENDBRANCH   1   6
TORSDOF 6
ENDMDL
MODEL 7
REMARK VINA RESULT:      -5.3      2.544      5.473
REMARK  6 active torsions:
REMARK  status: ('A' for Active; 'I' for Inactive)
REMARK    1  A    between atoms: C_2  and  C_3 
REMARK    2  A    between atoms: C_3  and  C_4 
REMARK    3  A    between atoms: C_4  and  C_5 
REMARK    4  A    between atoms: C_5  and  C_6 
REMARK    5  A    between atoms: C_6  and  C_7 
REMARK    6  A    between atoms: C_7  and  C_8 
ROOT
HETATM    1  C   LIG     1      16.442  36.701  22.423  1.00  0.00     0.007 C 
ENDROOT
BRANCH   1   2
HETATM    2  C   LIG     1      17.165  37.859  23.127  1.00  0.00     0.077 C 
BRANCH   2   3
HETATM    3  C   LIG     1      17.246  37.654  24.618  1.00  0.00     0.123 C 
HETATM    4  C   LIG     1      17.495  36.293  25.198  1.00  0.00     0.091 C 
HETATM    5  O   LIG     1      17.082  38.603  25.369  1.00  0.00    -0.298 OA
ENDBRANCH   2   3
ENDBRANCH   1   2
BRANCH   1   6
HETATM    6  C   LIG     1      17.402  35.856  21.568  1.00  0.00     0.000 C 
BRANCH   6   7
HETATM    7  C   LIG     1      17.498  36.354  20.116  1.00  0.00     0.000 C 
BRANCH   7   8
HETATM    8  C   LIG     1      18.935  36.723  19.712  1.00  0.00    -0.000 C 
BRANCH   8   9
HETATM    9  C   LIG     1      19.050  38.169  19.205  1.00  0.00    -0.005 C 
HETATM   10  C   LIG     1      20.399  38.809  19.535  1.00  0.00     0.005 C 
ENDBRANCH   8   9
ENDBRANCH   7   8
ENDBRANCH   6   7
ENDBRANCH   1   6
TORSDOF 6
ENDMDL
MODEL 8
REMARK VINA RESULT:      -5.3      3.898      5.061
REMARK  6 active torsions:
REMARK  status: ('A' for Active; 'I' for Inactive)
REMARK    1  A    between atoms: C_2  and  C_3 
REMARK    2  A    between atoms: C_3  and  C_4 
REMARK    3  A    between atoms: C_4  and  C_5 
REMARK    4  A    between atoms: C_5  and  C_6 
REMARK    5  A    between atoms: C_6  and  C_7 
REMARK    6  A    between atoms: C_7  and  C_8 
ROOT
HETATM    1  C   LIG     1      17.103  35.080  22.447  1.00  0.00     0.007 C 
ENDROOT
BRANCH   1   2
HETATM    2  C   LIG     1      16.408  35.120  21.079  1.00  0.00     0.077 C 
BRANCH   2   3
HETATM    3  C   LIG     1      15.353  34.052  20.948  1.00  0.00     0.123 C 
HETATM    4  C   LIG     1      15.481  32.961  19.927  1.00  0.00     0.091 C 
HETATM    5  O   LIG     1      14.366  34.086  21.666  1.00  0.00    -0.298 OA
ENDBRANCH   2   3
ENDBRANCH   1   2
BRANCH   1   6
HETATM    6  C   LIG     1      16.947  36.405  23.214  1.00  0.00     0.000 C 
BRANCH   6   7
HETATM    7  C   LIG     1      16.137  37.451  22.430  1.00  0.00     0.000 C 
BRANCH   7   8
HETATM    8  C   LIG     1      16.716  38.870  22.566  1.00  0.00    -0.000 C 
BRANCH   8   9
HETATM    9  C   LIG     1      18.221  38.922  22.264  1.00  0.00    -0.005 C 
HETATM   10  C   LIG     1      18.532  38.807  20.772  1.00  0.00     0.005 C 
ENDBRANCH   8   9
ENDBRANCH   7   8
ENDBRANCH   6   7
ENDBRANCH   1   6
TORSDOF 6
ENDMDL
MODEL 9
REMARK VINA RESULT:      -5.3      3.857      4.343
REMARK  6 active torsions:
REMARK  status: ('A' for Active; 'I' for Inactive)
REMARK    1  A    between atoms: C_2  and  C_3 
REMARK    2  A    between atoms: C_3  and  C_4 
REMARK    3  A    between atoms: C_4  and  C_5 
REMARK    4  A    between atoms: C_5  and  C_6 
REMARK    5  A    between atoms: C_6  and  C_7 
REMARK    6  A    between atoms: C_7  and  C_8 
ROOT
HETATM    1  C   LIG     1      16.773  35.543  22.397  1.00  0.00     0.007 C 
ENDROOT
BRANCH   1   2
HETATM    2  C   LIG     1      16.483  35.077  20.963  1.00  0.00     0.077 C 
BRANCH   2   3
HETATM    3  C   LIG     1      15.402  34.028  20.916  1.00  0.00     0.123 C 
HETATM    4  C   LIG     1      15.452  32.911  19.917  1.00  0.00     0.091 C 
HETATM    5  O   LIG     1      14.456  34.101  21.686  1.00  0.00    -0.298 OA
ENDBRANCH   2   3
ENDBRANCH   1   2
BRANCH   1   6
HETATM    6  C   LIG     1      16.262  36.971  22.656  1.00  0.00     0.000 C 
BRANCH   6   7
HETATM    7  C   LIG     1      17.377  38.026  22.559  1.00  0.00     0.000 C 
BRANCH   7   8
HETATM    8  C   LIG     1      18.034  38.318  23.920  1.00  0.00    -0.000 C 
BRANCH   8   9
HETATM    9  C   LIG     1      17.217  37.765  25.097  1.00  0.00    -0.005 C 
HETATM   10  C   LIG     1      18.057  36.930  26.064  1.00  0.00     0.005 C 
ENDBRANCH   8   9
ENDBRANCH   7   8
ENDBRANCH   6   7
ENDBRANCH   1   6
TORSDOF 6
ENDMDL
MODEL 10
REMARK VINA RESULT:      -5.2      3.422      5.038
REMARK  6 active torsions:
REMARK  status: ('A' for Active; 'I' for Inactive)
REMARK    1  A    between atoms: C_2  and  C_3 
REMARK    2  A    between atoms: C_3  and  C_4 
REMARK    3  A    between atoms: C_4  and  C_5 
REMARK    4  A    between atoms: C_5  and  C_6 
REMARK    5  A    between atoms: C_6  and  C_7 
REMARK    6  A    between atoms: C_7  and  C_8 
ROOT
HETATM    1  C   LIG     1      16.797  37.838  22.235  1.00  0.00     0.007 C 
ENDROOT
BRANCH   1   2
HETATM    2  C   LIG     1      17.337  38.650  23.421  1.00  0.00     0.077 C 
BRANCH   2   3
HETATM    3  C   LIG     1      17.246  37.887  24.718  1.00  0.00     0.123 C 
HETATM    4  C   LIG     1      17.387  36.394  24.747  1.00  0.00     0.091 C 
HETATM    5  O   LIG     1      17.030  38.488  25.759  1.00  0.00    -0.298 OA
ENDBRANCH   2   3
ENDBRANCH   1   2
BRANCH   1   6
HETATM    6  C   LIG     1      17.864  37.623  21.148  1.00  0.00     0.000 C 
BRANCH   6   7
HETATM    7  C   LIG     1      17.782  36.228  20.505  1.00  0.00     0.000 C 
BRANCH   7   8
HETATM    8  C   LIG     1      16.791  35.301  21.230  1.00  0.00    -0.000 C 
BRANCH   8   9
HETATM    9  C   LIG     1      15.648  34.833  20.316  1.00  0.00    -0.005 C 
HETATM   10  C   LIG     1      15.555  33.311  20.214  1.00  0.00     0.005 C 
ENDBRANCH   8   9
ENDBRANCH   7   8
ENDBRANCH   6   7
ENDBRANCH   1   6
TORSDOF 6
ENDMDL
MODEL 11
REMARK VINA RESULT:      -5.0      2.816      6.036
REMARK  6 active torsions:
REMARK  status: ('A' for Active; 'I' for Inactive)
REMARK    1  A    between atoms: C_2  and  C_3 
REMARK    2  A    between atoms: C_3  and  C_4 
REMARK    3  A    between atoms: C_4  and  C_5 
REMARK    4  A    between atoms: C_5  and  C_6 
REMARK    5  A    between atoms: C_6  and  C_7 
REMARK    6  A    between atoms: C_7  and  C_8 
ROOT
HETATM    1  C   LIG     1      18.491  39.104  22.348  1.00  0.00     0.007 C 
ENDROOT
BRANCH   1   2
HETATM    2  C   LIG     1      17.004  38.862  22.647  1.00  0.00     0.077 C 
BRANCH   2   3
HETATM    3  C   LIG     1      16.776  37.555  23.362  1.00  0.00     0.123 C 
HETATM    4  C   LIG     1      16.794  36.254  22.618  1.00  0.00     0.091 C 
HETATM    5  O   LIG     1      16.548  37.555  24.562  1.00  0.00    -0.298 OA
ENDBRANCH   2   3
ENDBRANCH   1   2
BRANCH   1   6
HETATM    6  C   LIG     1      18.729  39.496  20.879  1.00  0.00     0.000 C 
BRANCH   6   7
HETATM    7  C   LIG     1      19.018  38.282  19.980  1.00  0.00     0.000 C 
BRANCH   7   8
HETATM    8  C   LIG     1      19.492  38.687  18.574  1.00  0.00    -0.000 C 
BRANCH   8   9
HETATM    9  C   LIG     1      18.498  39.618  17.864  1.00  0.00    -0.005 C 
HETATM   10  C   LIG     1      18.698  39.655  16.349  1.00  0.00     0.005 C 
ENDBRANCH   8   9
ENDBRANCH   7   8
ENDBRANCH   6   7
ENDBRANCH   1   6
TORSDOF 6
ENDMDL
MODEL 12
REMARK VINA RESULT:      -5.0      1.615      2.560
REMARK  6 active torsions:
REMARK  status: ('A' for Active; 'I' for Inactive)
REMARK    1  A    between atoms: C_2  and  C_3 
REMARK    2  A    between atoms: C_3  and  C_4 
REMARK    3  A    between atoms: C_4  and  C_5 
REMARK    4  A    between atoms: C_5  and  C_6 
REMARK    5  A    between atoms: C_6  and  C_7 
REMARK    6  A    between atoms: C_7  and  C_8 
ROOT
HETATM    1  C   LIG     1      18.064  36.683  19.891  1.00  0.00     0.007 C 
ENDROOT
BRANCH   1   2
HETATM    2  C   LIG     1      19.375  37.382  19.500  1.00  0.00     0.077 C 
BRANCH   2   3
HETATM    3  C   LIG     1      19.157  38.827  19.132  1.00  0.00     0.123 C 
HETATM    4  C   LIG     1      18.870  39.230  17.716  1.00  0.00     0.091 C 
HETATM    5  O   LIG     1      19.240  39.689  19.994  1.00  0.00    -0.298 OA
ENDBRANCH   2   3
ENDBRANCH   1   2
BRANCH   1   6
HETATM    6  C   LIG     1      17.838  36.688  21.413  1.00  0.00     0.000 C 
BRANCH   6   7
HETATM    7  C   LIG     1      16.347  36.680  21.790  1.00  0.00     0.000 C 
BRANCH   7   8
HETATM    8  C   LIG     1      16.017  37.675  22.916  1.00  0.00    -0.000 C 
BRANCH   8   9
HETATM    9  C   LIG     1      17.274  38.321  23.517  1.00  0.00    -0.005 C 
HETATM   10  C   LIG     1      17.362  38.151  25.034  1.00  0.00     0.005 C 
ENDBRANCH   8   9
ENDBRANCH   7   8
ENDBRANCH   6   7
ENDBRANCH   1   6
TORSDOF 6
ENDMDL
MODEL 13
REMARK VINA RESULT:      -4.9      4.603      5.780
REMARK  6 active torsions:
REMARK  status: ('A' for Active; 'I' for Inactive)
REMARK    1  A    between atoms: C_2  and  C_3 
REMARK    2  A    between atoms: C_3  and  C_4 
REMARK    3  A    between atoms: C_4  and  C_5 
REMARK    4  A    between atoms: C_5  and  C_6 
REMARK    5  A    between atoms: C_6  and  C_7 
REMARK    6  A    between atoms: C_7  and  C_8 
ROOT
HETATM    1  C   LIG     1      15.329  34.427  21.330  1.00  0.00     0.007 C 
ENDROOT
BRANCH   1   2
HETATM    2  C   LIG     1      15.665  34.313  19.836  1.00  0.00     0.077 C 
BRANCH   2   3
HETATM    3  C   LIG     1      15.365  32.940  19.291  1.00  0.00     0.123 C 
HETATM    4  C   LIG     1      14.838  31.854  20.180  1.00  0.00     0.091 C 
HETATM    5  O   LIG     1      15.576  32.699  18.112  1.00  0.00    -0.298 OA
ENDBRANCH   2   3
ENDBRANCH   1   2
BRANCH   1   6
HETATM    6  C   LIG     1      16.506  34.989  22.147  1.00  0.00     0.000 C 
BRANCH   6   7
HETATM    7  C   LIG     1      16.493  36.524  22.226  1.00  0.00     0.000 C 
BRANCH   7   8
HETATM    8  C   LIG     1      17.565  37.172  21.333  1.00  0.00    -0.000 C 
BRANCH   8   9
HETATM    9  C   LIG     1      17.758  38.666  21.635  1.00  0.00    -0.005 C 
HETATM   10  C   LIG     1      18.846  39.310  20.776  1.00  0.00     0.005 C 
ENDBRANCH   8   9
ENDBRANCH   7   8
ENDBRANCH   6   7
ENDBRANCH   1   6
TORSDOF 6
ENDMDL
MODEL 14
REMARK VINA RESULT:      -4.8      1.550      2.338
REMARK  6 active torsions:
REMARK  status: ('A' for Active; 'I' for Inactive)
REMARK    1  A    between atoms: C_2  and  C_3 
REMARK    2  A    between atoms: C_3  and  C_4 
REMARK    3  A    between atoms: C_4  and  C_5 
REMARK    4  A    between atoms: C_5  and  C_6 
REMARK    5  A    between atoms: C_6  and  C_7 
REMARK    6  A    between atoms: C_7  and  C_8 
ROOT
HETATM    1  C   LIG     1      17.878  36.790  20.850  1.00  0.00     0.007 C 
ENDROOT
BRANCH   1   2
HETATM    2  C   LIG     1      17.495  38.181  21.375  1.00  0.00     0.077 C 
BRANCH   2   3
HETATM    3  C   LIG     1      18.686  39.100  21.466  1.00  0.00     0.123 C 
HETATM    4  C   LIG     1      19.439  39.266  22.752  1.00  0.00     0.091 C 
HETATM    5  O   LIG     1      19.030  39.741  20.484  1.00  0.00    -0.298 OA
ENDBRANCH   2   3
ENDBRANCH   1   2
BRANCH   1   6
HETATM    6  C   LIG     1      17.164  35.664  21.619  1.00  0.00     0.000 C 
BRANCH   6   7
HETATM    7  C   LIG     1      16.801  36.068  23.058  1.00  0.00     0.000 C 
BRANCH   7   8
HETATM    8  C   LIG     1      17.228  35.013  24.093  1.00  0.00    -0.000 C 
BRANCH   8   9
HETATM    9  C   LIG     1      17.546  35.630  25.464  1.00  0.00    -0.005 C 
HETATM   10  C   LIG     1      17.855  37.125  25.386  1.00  0.00     0.005 C 
ENDBRANCH   8   9
ENDBRANCH   7   8
ENDBRANCH   6   7
ENDBRANCH   1   6
TORSDOF 6
ENDMDL
MODEL 15
REMARK VINA RESULT:      -4.6      7.979      9.210
REMARK  6 active torsions:
REMARK  status: ('A' for Active; 'I' for Inactive)
REMARK    1  A    between atoms: C_2  and  C_3 
REMARK    2  A    between atoms: C_3  and  C_4 
REMARK    3  A    between atoms: C_4  and  C_5 
REMARK    4  A    between atoms: C_5  and  C_6 
REMARK    5  A    between atoms: C_6  and  C_7 
REMARK    6  A    between atoms: C_7  and  C_8 
ROOT
HETATM    1  C   LIG     1      15.637  32.569  15.737  1.00  0.00     0.007 C 
ENDROOT
BRANCH   1   2
HETATM    2  C   LIG     1      14.855  31.309  15.336  1.00  0.00     0.077 C 
BRANCH   2   3
HETATM    3  C   LIG     1      15.447  30.637  14.124  1.00  0.00     0.123 C 
HETATM    4  C   LIG     1      15.228  29.177  13.866  1.00  0.00     0.091 C 
HETATM    5  O   LIG     1      16.136  31.285  13.350  1.00  0.00    -0.298 OA
ENDBRANCH   2   3
ENDBRANCH   1   2
BRANCH   1   6
HETATM    6  C   LIG     1      15.092  33.201  17.029  1.00  0.00     0.000 C 
BRANCH   6   7
HETATM    7  C   LIG     1      14.595  32.153  18.038  1.00  0.00     0.000 C 
BRANCH   7   8
HETATM    8  C   LIG     1      15.491  32.061  19.285  1.00  0.00    -0.000 C 
BRANCH   8   9
HETATM    9  C   LIG     1      15.044  33.018  20.402  1.00  0.00    -0.005 C 
HETATM   10  C   LIG     1      15.870  34.304  20.448  1.00  0.00     0.005 C 
ENDBRANCH   8   9
ENDBRANCH   7   8
ENDBRANCH   6   7
ENDBRANCH   1   6
TORSDOF 6
ENDMDL
MODEL 16
REMARK VINA RESULT:      -4.3      2.664      3.819
REMARK  6 active torsions:
REMARK  status: ('A' for Active; 'I' for Inactive)
REMARK    1  A    between atoms: C_2  and  C_3 
REMARK    2  A    between atoms: C_3  and  C_4 
REMARK    3  A    between atoms: C_4  and  C_5 
REMARK    4  A    between atoms: C_5  and  C_6 
REMARK    5  A    between atoms: C_6  and  C_7 
REMARK    6  A    between atoms: C_7  and  C_8 
ROOT
HETATM    1  C   LIG     1      17.229  38.402  22.853  1.00  0.00     0.007 C 
ENDROOT
BRANCH   1   2
HETATM    2  C   LIG     1      17.647  39.085  21.543  1.00  0.00     0.077 C 
BRANCH   2   3
HETATM    3  C   LIG     1      19.145  39.166  21.399  1.00  0.00     0.123 C 
HETATM    4  C   LIG     1      19.799  39.054  20.054  1.00  0.00     0.091 C 
HETATM    5  O   LIG     1      19.841  39.301  22.394  1.00  0.00    -0.298 OA
ENDBRANCH   2   3
ENDBRANCH   1   2
BRANCH   1   6
HETATM    6  C   LIG     1      16.251  37.238  22.612  1.00  0.00     0.000 C 
BRANCH   6   7
HETATM    7  C   LIG     1      16.725  36.286  21.502  1.00  0.00     0.000 C 
BRANCH   7   8
HETATM    8  C   LIG     1      16.455  34.809  21.834  1.00  0.00    -0.000 C 
BRANCH   8   9
HETATM    9  C   LIG     1      15.787  34.057  20.673  1.00  0.00    -0.005 C 
HETATM   10  C   LIG     1      15.612  34.925  19.426  1.00  0.00     0.005 C 
ENDBRANCH   8   9
ENDBRANCH   7   8
ENDBRANCH   6   7
ENDBRANCH   1   6
TORSDOF 6
ENDMDL
MODEL 17
REMARK VINA RESULT:      -4.3      8.175     10.818
REMARK  6 active torsions:
REMARK  status: ('A' for Active; 'I' for Inactive)
REMARK    1  A    between atoms: C_2  and  C_3 
REMARK    2  A    between atoms: C_3  and  C_4 
REMARK    3  A    between atoms: C_4  and  C_5 
REMARK    4  A    between atoms: C_5  and  C_6 
REMARK    5  A    between atoms: C_6  and  C_7 
REMARK    6  A    between atoms: C_7  and  C_8 
ROOT
HETATM    1  C   LIG     1      15.271  31.626  15.380  1.00  0.00     0.007 C 
ENDROOT
BRANCH   1   2
HETATM    2  C   LIG     1      15.271  32.611  16.559  1.00  0.00     0.077 C 
BRANCH   2   3
HETATM    3  C   LIG     1      14.563  32.051  17.765  1.00  0.00     0.123 C 
HETATM    4  C   LIG     1      15.094  32.280  19.148  1.00  0.00     0.091 C 
HETATM    5  O   LIG     1      13.554  31.378  17.615  1.00  0.00    -0.298 OA
ENDBRANCH   2   3
ENDBRANCH   1   2
BRANCH   1   6
HETATM    6  C   LIG     1      16.068  32.163  14.178  1.00  0.00     0.000 C 
BRANCH   6   7
HETATM    7  C   LIG     1      17.254  33.045  14.600  1.00  0.00     0.000 C 
BRANCH   7   8
HETATM    8  C   LIG     1      17.665  34.046  13.506  1.00  0.00    -0.000 C 
BRANCH   8   9
HETATM    9  C   LIG     1      18.671  33.449  12.510  1.00  0.00    -0.005 C 
HETATM   10  C   LIG     1      20.104  33.921  12.758  1.00  0.00     0.005 C 
ENDBRANCH   8   9
ENDBRANCH   7   8
ENDBRANCH   6   7
ENDBRANCH   1   6
TORSDOF 6
ENDMDL
MODEL 18
REMARK VINA RESULT:      -3.9      9.879     11.896
REMARK  6 active torsions:
REMARK  status: ('A' for Active; 'I' for Inactive)
REMARK    1  A    between atoms: C_2  and  C_3 
REMARK    2  A    between atoms: C_3  and  C_4 
REMARK    3  A    between atoms: C_4  and  C_5 
REMARK    4  A    between atoms: C_5  and  C_6 
REMARK    5  A    between atoms: C_6  and  C_7 
REMARK    6  A    between atoms: C_7  and  C_8 
ROOT
HETATM    1  C   LIG     1      16.954  32.094  15.327  1.00  0.00     0.007 C 
ENDROOT
BRANCH   1   2
HETATM    2  C   LIG     1      15.452  31.782  15.240  1.00  0.00     0.077 C 
BRANCH   2   3
HETATM    3  C   LIG     1      15.156  30.701  14.233  1.00  0.00     0.123 C 
HETATM    4  C   LIG     1      13.964  29.805  14.389  1.00  0.00     0.091 C 
HETATM    5  O   LIG     1      15.910  30.534  13.286  1.00  0.00    -0.298 OA
ENDBRANCH   2   3
ENDBRANCH   1   2
BRANCH   1   6
HETATM    6  C   LIG     1      17.278  33.517  14.840  1.00  0.00     0.000 C 
BRANCH   6   7
HETATM    7  C   LIG     1      18.538  33.568  13.959  1.00  0.00     0.000 C 
BRANCH   7   8
HETATM    8  C   LIG     1      18.211  33.788  12.472  1.00  0.00    -0.000 C 
BRANCH   8   9
HETATM    9  C   LIG     1      19.218  33.097  11.540  1.00  0.00    -0.005 C 
HETATM   10  C   LIG     1      20.093  34.087  10.772  1.00  0.00     0.005 C 
ENDBRANCH   8   9
ENDBRANCH   7   8
ENDBRANCH   6   7
ENDBRANCH   1   6
TORSDOF 6
ENDMDL
MODEL 19
REMARK VINA RESULT:      -3.8      8.484     10.129
REMARK  6 active torsions:
REMARK  status: ('A' for Active; 'I' for Inactive)
REMARK    1  A    between atoms: C_2  and  C_3 
REMARK    2  A    between atoms: C_3  and  C_4 
REMARK    3  A    between atoms: C_4  and  C_5 
REMARK    4  A    between atoms: C_5  and  C_6 
REMARK    5  A    between atoms: C_6  and  C_7 
REMARK    6  A    between atoms: C_7  and  C_8 
ROOT
HETATM    1  C   LIG     1      15.339  30.745  14.087  1.00  0.00     0.007 C 
ENDROOT
BRANCH   1   2
HETATM    2  C   LIG     1      16.325  31.440  15.036  1.00  0.00     0.077 C 
BRANCH   2   3
HETATM    3  C   LIG     1      16.849  32.732  14.463  1.00  0.00     0.123 C 
HETATM    4  C   LIG     1      16.825  32.987  12.986  1.00  0.00     0.091 C 
HETATM    5  O   LIG     1      17.325  33.575  15.208  1.00  0.00    -0.298 OA
ENDBRANCH   2   3
ENDBRANCH   1   2
BRANCH   1   6
HETATM    6  C   LIG     1      14.119  30.178  14.833  1.00  0.00     0.000 C 
BRANCH   6   7
HETATM    7  C   LIG     1      13.459  31.212  15.762  1.00  0.00     0.000 C 
BRANCH   7   8
HETATM    8  C   LIG     1      13.577  30.832  17.248  1.00  0.00    -0.000 C 
BRANCH   8   9
HETATM    9  C   LIG     1      14.420  31.838  18.046  1.00  0.00    -0.005 C 
HETATM   10  C   LIG     1      14.520  33.203  17.364  1.00  0.00     0.005 C 
ENDBRANCH   8   9
ENDBRANCH   7   8
ENDBRANCH   6   7
ENDBRANCH   1   6
TORSDOF 6
ENDMDL
MODEL 20
REMARK VINA RESULT:      -3.7     16.450     17.477
REMARK  6 active torsions:
REMARK  status: ('A' for Active; 'I' for Inactive)
REMARK    1  A    between atoms: C_2  and  C_3 
REMARK    2  A    between atoms: C_3  and  C_4 
REMARK    3  A    between atoms: C_4  and  C_5 
REMARK    4  A    between atoms: C_5  and  C_6 
REMARK    5  A    between atoms: C_6  and  C_7 
REMARK    6  A    between atoms: C_7  and  C_8 
ROOT
HETATM    1  C   LIG     1      27.275  30.937  34.683  1.00  0.00     0.007 C 
ENDROOT
BRANCH   1   2
HETATM    2  C   LIG     1      25.918  30.906  35.401  1.00  0.00     0.077 C 
BRANCH   2   3
HETATM    3  C   LIG     1      26.070  30.911  36.900  1.00  0.00     0.123 C 
HETATM    4  C   LIG     1      26.955  31.911  37.583  1.00  0.00     0.091 C 
HETATM    5  O   LIG     1      25.484  30.074  37.570  1.00  0.00    -0.298 OA
ENDBRANCH   2   3
ENDBRANCH   1   2
BRANCH   1   6
HETATM    6  C   LIG     1      27.593  29.601  33.988  1.00  0.00     0.000 C 
BRANCH   6   7
HETATM    7  C   LIG     1      26.435  28.593  34.085  1.00  0.00     0.000 C 
BRANCH   7   8
HETATM    8  C   LIG     1      26.454  27.560  32.945  1.00  0.00    -0.000 C 
BRANCH   8   9
HETATM    9  C   LIG     1      27.628  27.775  31.977  1.00  0.00    -0.005 C 
HETATM   10  C   LIG     1      27.306  27.337  30.547  1.00  0.00     0.005 C 
ENDBRANCH   8   9
ENDBRANCH   7   8
ENDBRANCH   6   7
ENDBRANCH   1   6
TORSDOF 6
ENDMDL
