MODEL 1
REMARK VINA RESULT:      -6.6      0.000      0.000
REMARK  2 active torsions:
REMARK  status: ('A' for Active; 'I' for Inactive)
REMARK    1  A    between atoms: N_3  and  C_4 
REMARK    2  A    between atoms: C_11  and  N_12 
ROOT
HETATM    1  C   LIG     1      16.860  32.180  15.410  1.00  0.00     0.178 C 
HETATM    2  N   LIG     1      15.490  31.668  15.519  1.00  0.00    -0.289 N 
HETATM    3  N   LIG     1      14.685  31.882  16.558  1.00  0.00    -0.217 N 
HETATM    4  C   LIG     1      13.558  31.165  16.377  1.00  0.00     0.295 A 
HETATM    5  C   LIG     1      13.636  30.484  15.185  1.00  0.00     0.120 A 
HETATM    6  C   LIG     1      14.871  30.826  14.650  1.00  0.00     0.056 A 
HETATM    7  C   LIG     1      15.468  30.304  13.376  1.00  0.00     0.072 C 
HETATM    8  O   LIG     1      12.591  31.132  17.184  1.00  0.00    -0.264 OA
ENDROOT
BRANCH   3   9
HETATM    9  C   LIG     1      14.991  32.692  17.706  1.00  0.00     0.060 A 
HETATM   10  C   LIG     1      15.207  32.097  18.958  1.00  0.00     0.031 A 
HETATM   11  C   LIG     1      15.511  32.887  20.071  1.00  0.00     0.002 A 
HETATM   12  C   LIG     1      15.607  34.276  19.938  1.00  0.00     0.000 A 
HETATM   13  C   LIG     1      15.405  34.874  18.691  1.00  0.00     0.002 A 
HETATM   14  C   LIG     1      15.101  34.085  17.577  1.00  0.00     0.031 A 
ENDBRANCH   3   9
BRANCH   5  15
HETATM   15  N   LIG     1      12.661  29.587  14.650  1.00  0.00    -0.393 N 
HETATM   16  H   LIG     1      12.014  29.905  13.895  1.00  0.00     0.156 HD
HETATM   17  H   LIG     1      12.565  28.613  15.009  1.00  0.00     0.156 HD
ENDBRANCH   5  15
TORSDOF 2
ENDMDL
MODEL 2
REMARK VINA RESULT:      -6.4      6.748      9.676
REMARK  2 active torsions:
REMARK  status: ('A' for Active; 'I' for Inactive)
REMARK    1  A    between atoms: N_3  and  C_4 
REMARK    2  A    between atoms: C_11  and  N_12 
ROOT
HETATM    1  C   LIG     1      17.562  34.683  24.454  1.00  0.00     0.178 C 
HETATM    2  N   LIG     1      17.255  36.116  24.502  1.00  0.00    -0.289 N 
HETATM    3  N   LIG     1      16.800  36.827  23.472  1.00  0.00    -0.217 N 
HETATM    4  C   LIG     1      16.751  38.123  23.837  1.00  0.00     0.295 A 
HETATM    5  C   LIG     1      17.173  38.247  25.140  1.00  0.00     0.120 A 
HETATM    6  C   LIG     1      17.480  36.956  25.548  1.00  0.00     0.056 A 
HETATM    7  C   LIG     1      18.041  36.548  26.878  1.00  0.00     0.072 C 
HETATM    8  O   LIG     1      16.374  39.065  23.090  1.00  0.00    -0.264 OA
ENDROOT
BRANCH   3   9
HETATM    9  C   LIG     1      16.473  36.306  22.172  1.00  0.00     0.060 A 
HETATM   10  C   LIG     1      17.420  36.337  21.136  1.00  0.00     0.031 A 
HETATM   11  C   LIG     1      17.100  35.824  19.875  1.00  0.00     0.002 A 
HETATM   12  C   LIG     1      15.837  35.272  19.643  1.00  0.00     0.000 A 
HETATM   13  C   LIG     1      14.894  35.227  20.673  1.00  0.00     0.002 A 
HETATM   14  C   LIG     1      15.211  35.740  21.935  1.00  0.00     0.031 A 
ENDBRANCH   3   9
BRANCH   5  15
HETATM   15  N   LIG     1      17.300  39.460  25.882  1.00  0.00    -0.393 N 
HETATM   16  H   LIG     1      16.484  39.842  26.409  1.00  0.00     0.156 HD
HETATM   17  H   LIG     1      18.197  39.994  25.901  1.00  0.00     0.156 HD
ENDBRANCH   5  15
TORSDOF 2
ENDMDL
MODEL 3
REMARK VINA RESULT:      -6.0      2.234      5.547
REMARK  2 active torsions:
REMARK  status: ('A' for Active; 'I' for Inactive)
REMARK    1  A    between atoms: N_3  and  C_4 
REMARK    2  A    between atoms: C_11  and  N_12 
ROOT
HETATM    1  C   LIG     1      13.726  31.317  17.089  1.00  0.00     0.178 C 
HETATM    2  N   LIG     1      14.706  31.877  16.153  1.00  0.00    -0.289 N 
HETATM    3  N   LIG     1      15.123  31.271  15.042  1.00  0.00    -0.217 N 
HETATM    4  C   LIG     1      16.108  32.011  14.497  1.00  0.00     0.295 A 
HETATM    5  C   LIG     1      16.321  33.129  15.270  1.00  0.00     0.120 A 
HETATM    6  C   LIG     1      15.411  33.029  16.314  1.00  0.00     0.056 A 
HETATM    7  C   LIG     1      15.271  33.973  17.472  1.00  0.00     0.072 C 
HETATM    8  O   LIG     1      16.730  31.714  13.442  1.00  0.00    -0.264 OA
ENDROOT
BRANCH   3   9
HETATM    9  C   LIG     1      14.643  30.011  14.543  1.00  0.00     0.060 A 
HETATM   10  C   LIG     1      15.547  29.005  14.169  1.00  0.00     0.031 A 
HETATM   11  C   LIG     1      15.076  27.778  13.689  1.00  0.00     0.002 A 
HETATM   12  C   LIG     1      13.701  27.548  13.587  1.00  0.00     0.000 A 
HETATM   13  C   LIG     1      12.795  28.541  13.968  1.00  0.00     0.002 A 
HETATM   14  C   LIG     1      13.263  29.769  14.448  1.00  0.00     0.031 A 
ENDBRANCH   3   9
BRANCH   5  15
HETATM   15  N   LIG     1      17.304  34.142  15.051  1.00  0.00    -0.393 N 
HETATM   16  H   LIG     1      17.116  35.127  15.341  1.00  0.00     0.156 HD
HETATM   17  H   LIG     1      18.212  33.926  14.586  1.00  0.00     0.156 HD
ENDBRANCH   5  15
TORSDOF 2
ENDMDL
MODEL 4
REMARK VINA RESULT:      -5.7      4.469      7.170
REMARK  2 active torsions:
REMARK  status: ('A' for Active; 'I' for Inactive)
REMARK    1  A    between atoms: N_3  and  C_4 
REMARK    2  A    between atoms: C_11  and  N_12 
ROOT
HETATM    1  C   LIG     1      18.320  36.365  19.741  1.00  0.00     0.178 C 
HETATM    2  N   LIG     1      17.269  36.520  20.752  1.00  0.00    -0.289 N 
HETATM    3  N   LIG     1      16.159  35.785  20.808  1.00  0.00    -0.217 N 
HETATM    4  C   LIG     1      15.368  36.282  21.779  1.00  0.00     0.295 A 
HETATM    5  C   LIG     1      15.991  37.356  22.371  1.00  0.00     0.120 A 
HETATM    6  C   LIG     1      17.204  37.484  21.708  1.00  0.00     0.056 A 
HETATM    7  C   LIG     1      18.240  38.545  21.938  1.00  0.00     0.072 C 
HETATM    8  O   LIG     1      14.235  35.824  22.086  1.00  0.00    -0.264 OA
ENDROOT
BRANCH   3   9
HETATM    9  C   LIG     1      15.836  34.686  19.939  1.00  0.00     0.060 A 
HETATM   10  C   LIG     1      15.812  33.373  20.434  1.00  0.00     0.031 A 
HETATM   11  C   LIG     1      15.492  32.307  19.587  1.00  0.00     0.002 A 
HETATM   12  C   LIG     1      15.186  32.547  18.244  1.00  0.00     0.000 A 
HETATM   13  C   LIG     1      15.196  33.854  17.747  1.00  0.00     0.002 A 
HETATM   14  C   LIG     1      15.517  34.921  18.592  1.00  0.00     0.031 A 
ENDBRANCH   3   9
BRANCH   5  15
HETATM   15  N   LIG     1      15.465  38.176  23.416  1.00  0.00    -0.393 N 
HETATM   16  H   LIG     1      15.535  39.216  23.353  1.00  0.00     0.156 HD
HETATM   17  H   LIG     1      15.020  37.758  24.262  1.00  0.00     0.156 HD
ENDBRANCH   5  15
TORSDOF 2
ENDMDL
MODEL 5
REMARK VINA RESULT:      -5.5      1.749      2.419
REMARK  2 active torsions:
REMARK  status: ('A' for Active; 'I' for Inactive)
REMARK    1  A    between atoms: N_3  and  C_4 
REMARK    2  A    between atoms: C_11  and  N_12 
ROOT
HETATM    1  C   LIG     1      13.439  30.796  17.070  1.00  0.00     0.178 C 
HETATM    2  N   LIG     1      14.499  31.349  16.221  1.00  0.00    -0.289 N 
HETATM    3  N   LIG     1      15.325  32.329  16.585  1.00  0.00    -0.217 N 
HETATM    4  C   LIG     1      16.080  32.666  15.521  1.00  0.00     0.295 A 
HETATM    5  C   LIG     1      15.741  31.873  14.450  1.00  0.00     0.120 A 
HETATM    6  C   LIG     1      14.739  31.035  14.920  1.00  0.00     0.056 A 
HETATM    7  C   LIG     1      13.983  30.012  14.124  1.00  0.00     0.072 C 
HETATM    8  O   LIG     1      16.958  33.570  15.522  1.00  0.00    -0.264 OA
ENDROOT
BRANCH   3   9
HETATM    9  C   LIG     1      15.361  32.959  17.877  1.00  0.00     0.060 A 
HETATM   10  C   LIG     1      15.452  32.185  19.043  1.00  0.00     0.031 A 
HETATM   11  C   LIG     1      15.493  32.802  20.297  1.00  0.00     0.002 A 
HETATM   12  C   LIG     1      15.450  34.196  20.393  1.00  0.00     0.000 A 
HETATM   13  C   LIG     1      15.371  34.974  19.235  1.00  0.00     0.002 A 
HETATM   14  C   LIG     1      15.330  34.359  17.980  1.00  0.00     0.031 A 
ENDBRANCH   3   9
BRANCH   5  15
HETATM   15  N   LIG     1      16.287  31.943  13.131  1.00  0.00    -0.393 N 
HETATM   16  H   LIG     1      16.486  31.068  12.599  1.00  0.00     0.156 HD
HETATM   17  H   LIG     1      16.510  32.858  12.684  1.00  0.00     0.156 HD
ENDBRANCH   5  15
TORSDOF 2
ENDMDL
MODEL 6
REMARK VINA RESULT:      -5.4      6.498      9.458
REMARK  2 active torsions:
REMARK  status: ('A' for Active; 'I' for Inactive)
REMARK    1  A    between atoms: N_3  and  C_4 
REMARK    2  A    between atoms: C_11  and  N_12 
ROOT
HETATM    1  C   LIG     1      16.516  38.970  22.892  1.00  0.00     0.178 C 
HETATM    2  N   LIG     1      16.934  37.861  23.755  1.00  0.00    -0.289 N 
HETATM    3  N   LIG     1      16.945  36.581  23.388  1.00  0.00    -0.217 N 
HETATM    4  C   LIG     1      17.262  35.832  24.462  1.00  0.00     0.295 A 
HETATM    5  C   LIG     1      17.473  36.653  25.545  1.00  0.00     0.120 A 
HETATM    6  C   LIG     1      17.268  37.942  25.070  1.00  0.00     0.056 A 
HETATM    7  C   LIG     1      17.322  39.209  25.872  1.00  0.00     0.072 C 
HETATM    8  O   LIG     1      17.348  34.575  24.461  1.00  0.00    -0.264 OA
ENDROOT
BRANCH   3   9
HETATM    9  C   LIG     1      16.617  36.079  22.081  1.00  0.00     0.060 A 
HETATM   10  C   LIG     1      15.439  35.343  21.878  1.00  0.00     0.031 A 
HETATM   11  C   LIG     1      15.120  34.862  20.604  1.00  0.00     0.002 A 
HETATM   12  C   LIG     1      15.970  35.119  19.525  1.00  0.00     0.000 A 
HETATM   13  C   LIG     1      17.139  35.862  19.717  1.00  0.00     0.002 A 
HETATM   14  C   LIG     1      17.460  36.343  20.990  1.00  0.00     0.031 A 
ENDBRANCH   3   9
BRANCH   5  15
HETATM   15  N   LIG     1      17.792  36.244  26.876  1.00  0.00    -0.393 N 
HETATM   16  H   LIG     1      18.783  36.051  27.142  1.00  0.00     0.156 HD
HETATM   17  H   LIG     1      17.050  36.115  27.597  1.00  0.00     0.156 HD
ENDBRANCH   5  15
TORSDOF 2
ENDMDL
MODEL 7
REMARK VINA RESULT:      -5.4      3.364      5.679
REMARK  2 active torsions:
REMARK  status: ('A' for Active; 'I' for Inactive)
REMARK    1  A    between atoms: N_3  and  C_4 
REMARK    2  A    between atoms: C_11  and  N_12 
ROOT
HETATM    1  C   LIG     1      16.074  31.272  13.362  1.00  0.00     0.178 C 
HETATM    2  N   LIG     1      16.016  32.315  14.392  1.00  0.00    -0.289 N 
HETATM    3  N   LIG     1      16.785  33.402  14.411  1.00  0.00    -0.217 N 
HETATM    4  C   LIG     1      16.551  34.070  15.557  1.00  0.00     0.295 A 
HETATM    5  C   LIG     1      15.597  33.402  16.288  1.00  0.00     0.120 A 
HETATM    6  C   LIG     1      15.263  32.292  15.524  1.00  0.00     0.056 A 
HETATM    7  C   LIG     1      14.301  31.203  15.901  1.00  0.00     0.072 C 
HETATM    8  O   LIG     1      17.125  35.140  15.895  1.00  0.00    -0.264 OA
ENDROOT
BRANCH   3   9
HETATM    9  C   LIG     1      17.745  33.768  13.405  1.00  0.00     0.060 A 
HETATM   10  C   LIG     1      17.346  34.496  12.273  1.00  0.00     0.031 A 
HETATM   11  C   LIG     1      18.284  34.855  11.300  1.00  0.00     0.002 A 
HETATM   12  C   LIG     1      19.626  34.496  11.455  1.00  0.00     0.000 A 
HETATM   13  C   LIG     1      20.033  33.782  12.585  1.00  0.00     0.002 A 
HETATM   14  C   LIG     1      19.097  33.421  13.559  1.00  0.00     0.031 A 
ENDBRANCH   3   9
BRANCH   5  15
HETATM   15  N   LIG     1      15.101  33.766  17.578  1.00  0.00    -0.393 N 
HETATM   16  H   LIG     1      15.714  34.278  18.251  1.00  0.00     0.156 HD
HETATM   17  H   LIG     1      14.133  33.519  17.877  1.00  0.00     0.156 HD
ENDBRANCH   5  15
TORSDOF 2
ENDMDL
MODEL 8
REMARK VINA RESULT:      -5.2      7.627      9.554
REMARK  2 active torsions:
REMARK  status: ('A' for Active; 'I' for Inactive)
REMARK    1  A    between atoms: N_3  and  C_4 
REMARK    2  A    between atoms: C_11  and  N_12 
ROOT
HETATM    1  C   LIG     1      17.248  34.961  22.081  1.00  0.00     0.178 C 
HETATM    2  N   LIG     1      17.351  36.110  22.986  1.00  0.00    -0.289 N 
HETATM    3  N   LIG     1      17.768  37.322  22.623  1.00  0.00    -0.217 N 
HETATM    4  C   LIG     1      17.855  38.090  23.727  1.00  0.00     0.295 A 
HETATM    5  C   LIG     1      17.471  37.357  24.825  1.00  0.00     0.120 A 
HETATM    6  C   LIG     1      17.145  36.101  24.330  1.00  0.00     0.056 A 
HETATM    7  C   LIG     1      16.717  34.908  25.131  1.00  0.00     0.072 C 
HETATM    8  O   LIG     1      18.232  39.292  23.737  1.00  0.00    -0.264 OA
ENDROOT
BRANCH   3   9
HETATM    9  C   LIG     1      18.122  37.724  21.289  1.00  0.00     0.060 A 
HETATM   10  C   LIG     1      18.328  39.079  20.986  1.00  0.00     0.031 A 
HETATM   11  C   LIG     1      18.678  39.465  19.688  1.00  0.00     0.002 A 
HETATM   12  C   LIG     1      18.831  38.500  18.688  1.00  0.00     0.000 A 
HETATM   13  C   LIG     1      18.639  37.148  18.985  1.00  0.00     0.002 A 
HETATM   14  C   LIG     1      18.289  36.760  20.282  1.00  0.00     0.031 A 
ENDBRANCH   3   9
BRANCH   5  15
HETATM   15  N   LIG     1      17.459  37.799  26.184  1.00  0.00    -0.393 N 
HETATM   16  H   LIG     1      17.571  37.111  26.961  1.00  0.00     0.156 HD
HETATM   17  H   LIG     1      17.323  38.805  26.426  1.00  0.00     0.156 HD
ENDBRANCH   5  15
TORSDOF 2
ENDMDL
MODEL 9
REMARK VINA RESULT:      -5.1      2.119      5.328
REMARK  2 active torsions:
REMARK  status: ('A' for Active; 'I' for Inactive)
REMARK    1  A    between atoms: N_3  and  C_4 
REMARK    2  A    between atoms: C_11  and  N_12 
ROOT
HETATM    1  C   LIG     1      14.624  31.318  19.680  1.00  0.00     0.178 C 
HETATM    2  N   LIG     1      15.003  32.604  19.085  1.00  0.00    -0.289 N 
HETATM    3  N   LIG     1      15.014  32.857  17.778  1.00  0.00    -0.217 N 
HETATM    4  C   LIG     1      15.530  34.087  17.587  1.00  0.00     0.295 A 
HETATM    5  C   LIG     1      15.845  34.644  18.804  1.00  0.00     0.120 A 
HETATM    6  C   LIG     1      15.493  33.686  19.746  1.00  0.00     0.056 A 
HETATM    7  C   LIG     1      15.687  33.779  21.231  1.00  0.00     0.072 C 
HETATM    8  O   LIG     1      15.692  34.631  16.462  1.00  0.00    -0.264 OA
ENDROOT
BRANCH   3   9
HETATM    9  C   LIG     1      14.602  31.948  16.742  1.00  0.00     0.060 A 
HETATM   10  C   LIG     1      13.311  31.396  16.755  1.00  0.00     0.031 A 
HETATM   11  C   LIG     1      12.912  30.517  15.743  1.00  0.00     0.002 A 
HETATM   12  C   LIG     1      13.796  30.190  14.710  1.00  0.00     0.000 A 
HETATM   13  C   LIG     1      15.078  30.746  14.685  1.00  0.00     0.002 A 
HETATM   14  C   LIG     1      15.480  31.625  15.696  1.00  0.00     0.031 A 
ENDBRANCH   3   9
BRANCH   5  15
HETATM   15  N   LIG     1      16.447  35.921  19.028  1.00  0.00    -0.393 N 
HETATM   16  H   LIG     1      16.586  36.582  18.232  1.00  0.00     0.156 HD
HETATM   17  H   LIG     1      16.770  36.210  19.976  1.00  0.00     0.156 HD
ENDBRANCH   5  15
TORSDOF 2
ENDMDL
MODEL 10
REMARK VINA RESULT:      -5.1      5.547      7.641
REMARK  2 active torsions:
REMARK  status: ('A' for Active; 'I' for Inactive)
REMARK    1  A    between atoms: N_3  and  C_4 
REMARK    2  A    between atoms: C_11  and  N_12 
ROOT
HETATM    1  C   LIG     1      18.855  37.888  21.501  1.00  0.00     0.178 C 
HETATM    2  N   LIG     1      17.779  36.922  21.253  1.00  0.00    -0.289 N 
HETATM    3  N   LIG     1      17.091  36.296  22.207  1.00  0.00    -0.217 N 
HETATM    4  C   LIG     1      16.276  35.396  21.623  1.00  0.00     0.295 A 
HETATM    5  C   LIG     1      16.436  35.453  20.258  1.00  0.00     0.120 A 
HETATM    6  C   LIG     1      17.391  36.438  20.044  1.00  0.00     0.056 A 
HETATM    7  C   LIG     1      17.965  36.853  18.721  1.00  0.00     0.072 C 
HETATM    8  O   LIG     1      15.495  34.626  22.243  1.00  0.00    -0.264 OA
ENDROOT
BRANCH   3   9
HETATM    9  C   LIG     1      17.237  36.506  23.622  1.00  0.00     0.060 A 
HETATM   10  C   LIG     1      17.516  35.426  24.475  1.00  0.00     0.031 A 
HETATM   11  C   LIG     1      17.663  35.634  25.849  1.00  0.00     0.002 A 
HETATM   12  C   LIG     1      17.538  36.922  26.380  1.00  0.00     0.000 A 
HETATM   13  C   LIG     1      17.271  38.003  25.535  1.00  0.00     0.002 A 
HETATM   14  C   LIG     1      17.123  37.797  24.160  1.00  0.00     0.031 A 
ENDBRANCH   3   9
BRANCH   5  15
HETATM   15  N   LIG     1      15.779  34.635  19.288  1.00  0.00    -0.393 N 
HETATM   16  H   LIG     1      16.250  33.779  18.918  1.00  0.00     0.156 HD
HETATM   17  H   LIG     1      14.834  34.880  18.921  1.00  0.00     0.156 HD
ENDBRANCH   5  15
TORSDOF 2
ENDMDL
MODEL 11
REMARK VINA RESULT:      -5.0      2.412      4.451
REMARK  2 active torsions:
REMARK  status: ('A' for Active; 'I' for Inactive)
REMARK    1  A    between atoms: N_3  and  C_4 
REMARK    2  A    between atoms: C_11  and  N_12 
ROOT
HETATM    1  C   LIG     1      15.394  30.545  13.479  1.00  0.00     0.178 C 
HETATM    2  N   LIG     1      15.130  31.356  14.673  1.00  0.00    -0.289 N 
HETATM    3  N   LIG     1      15.851  32.413  15.042  1.00  0.00    -0.217 N 
HETATM    4  C   LIG     1      15.406  32.833  16.243  1.00  0.00     0.295 A 
HETATM    5  C   LIG     1      14.364  32.033  16.649  1.00  0.00     0.120 A 
HETATM    6  C   LIG     1      14.198  31.104  15.630  1.00  0.00     0.056 A 
HETATM    7  C   LIG     1      13.221  29.966  15.608  1.00  0.00     0.072 C 
HETATM    8  O   LIG     1      15.881  33.809  16.883  1.00  0.00    -0.264 OA
ENDROOT
BRANCH   3   9
HETATM    9  C   LIG     1      16.955  32.973  14.312  1.00  0.00     0.060 A 
HETATM   10  C   LIG     1      18.265  32.855  14.802  1.00  0.00     0.031 A 
HETATM   11  C   LIG     1      19.337  33.396  14.086  1.00  0.00     0.002 A 
HETATM   12  C   LIG     1      19.108  34.053  12.873  1.00  0.00     0.000 A 
HETATM   13  C   LIG     1      17.808  34.164  12.373  1.00  0.00     0.002 A 
HETATM   14  C   LIG     1      16.735  33.624  13.087  1.00  0.00     0.031 A 
ENDBRANCH   3   9
BRANCH   5  15
HETATM   15  N   LIG     1      13.646  32.128  17.880  1.00  0.00    -0.393 N 
HETATM   16  H   LIG     1      12.604  32.194  17.877  1.00  0.00     0.156 HD
HETATM   17  H   LIG     1      14.142  32.150  18.798  1.00  0.00     0.156 HD
ENDBRANCH   5  15
TORSDOF 2
ENDMDL
MODEL 12
REMARK VINA RESULT:      -5.0      2.317      4.175
REMARK  2 active torsions:
REMARK  status: ('A' for Active; 'I' for Inactive)
REMARK    1  A    between atoms: N_3  and  C_4 
REMARK    2  A    between atoms: C_11  and  N_12 
ROOT
HETATM    1  C   LIG     1      14.650  32.890  16.564  1.00  0.00     0.178 C 
HETATM    2  N   LIG     1      14.600  31.707  15.698  1.00  0.00    -0.289 N 
HETATM    3  N   LIG     1      15.433  31.477  14.684  1.00  0.00    -0.217 N 
HETATM    4  C   LIG     1      15.020  30.370  14.037  1.00  0.00     0.295 A 
HETATM    5  C   LIG     1      13.901  29.867  14.660  1.00  0.00     0.120 A 
HETATM    6  C   LIG     1      13.656  30.728  15.721  1.00  0.00     0.056 A 
HETATM    7  C   LIG     1      12.509  30.655  16.685  1.00  0.00     0.072 C 
HETATM    8  O   LIG     1      15.581  29.881  13.020  1.00  0.00    -0.264 OA
ENDROOT
BRANCH   3   9
HETATM    9  C   LIG     1      16.547  32.304  14.309  1.00  0.00     0.060 A 
HETATM   10  C   LIG     1      17.651  32.440  15.165  1.00  0.00     0.031 A 
HETATM   11  C   LIG     1      18.735  33.241  14.794  1.00  0.00     0.002 A 
HETATM   12  C   LIG     1      18.727  33.906  13.563  1.00  0.00     0.000 A 
HETATM   13  C   LIG     1      17.636  33.765  12.701  1.00  0.00     0.002 A 
HETATM   14  C   LIG     1      16.550  32.965  13.070  1.00  0.00     0.031 A 
ENDBRANCH   3   9
BRANCH   5  15
HETATM   15  N   LIG     1      13.143  28.725  14.258  1.00  0.00    -0.393 N 
HETATM   16  H   LIG     1      12.100  28.746  14.301  1.00  0.00     0.156 HD
HETATM   17  H   LIG     1      13.609  27.851  13.932  1.00  0.00     0.156 HD
ENDBRANCH   5  15
TORSDOF 2
ENDMDL
MODEL 13
REMARK VINA RESULT:      -4.6      3.550      5.684
REMARK  2 active torsions:
REMARK  status: ('A' for Active; 'I' for Inactive)
REMARK    1  A    between atoms: N_3  and  C_4 
REMARK    2  A    between atoms: C_11  and  N_12 
ROOT
HETATM    1  C   LIG     1      17.190  35.057  15.619  1.00  0.00     0.178 C 
HETATM    2  N   LIG     1      16.723  33.741  15.171  1.00  0.00    -0.289 N 
HETATM    3  N   LIG     1      17.094  33.154  14.034  1.00  0.00    -0.217 N 
HETATM    4  C   LIG     1      16.379  32.022  13.887  1.00  0.00     0.295 A 
HETATM    5  C   LIG     1      15.537  31.869  14.964  1.00  0.00     0.120 A 
HETATM    6  C   LIG     1      15.779  32.971  15.774  1.00  0.00     0.056 A 
HETATM    7  C   LIG     1      15.075  33.310  17.055  1.00  0.00     0.072 C 
HETATM    8  O   LIG     1      16.477  31.233  12.909  1.00  0.00    -0.264 OA
ENDROOT
BRANCH   3   9
HETATM    9  C   LIG     1      18.050  33.674  13.094  1.00  0.00     0.060 A 
HETATM   10  C   LIG     1      19.421  33.428  13.267  1.00  0.00     0.031 A 
HETATM   11  C   LIG     1      20.348  33.929  12.348  1.00  0.00     0.002 A 
HETATM   12  C   LIG     1      19.911  34.673  11.248  1.00  0.00     0.000 A 
HETATM   13  C   LIG     1      18.546  34.912  11.063  1.00  0.00     0.002 A 
HETATM   14  C   LIG     1      17.618  34.411  11.981  1.00  0.00     0.031 A 
ENDBRANCH   3   9
BRANCH   5  15
HETATM   15  N   LIG     1      14.593  30.817  15.165  1.00  0.00    -0.393 N 
HETATM   16  H   LIG     1      13.895  30.878  15.939  1.00  0.00     0.156 HD
HETATM   17  H   LIG     1      14.590  29.967  14.561  1.00  0.00     0.156 HD
ENDBRANCH   5  15
TORSDOF 2
ENDMDL
MODEL 14
REMARK VINA RESULT:      -4.2     14.007     15.339
REMARK  2 active torsions:
REMARK  status: ('A' for Active; 'I' for Inactive)
REMARK    1  A    between atoms: N_3  and  C_4 
REMARK    2  A    between atoms: C_11  and  N_12 
ROOT
HETATM    1  C   LIG     1      26.513  21.808  21.561  1.00  0.00     0.178 C 
HETATM    2  N   LIG     1      26.462  23.024  20.744  1.00  0.00    -0.289 N 
HETATM    3  N   LIG     1      25.846  23.119  19.567  1.00  0.00    -0.217 N 
HETATM    4  C   LIG     1      26.108  24.333  19.046  1.00  0.00     0.295 A 
HETATM    5  C   LIG     1      26.902  25.042  19.916  1.00  0.00     0.120 A 
HETATM    6  C   LIG     1      27.108  24.194  20.996  1.00  0.00     0.056 A 
HETATM    7  C   LIG     1      27.959  24.471  22.200  1.00  0.00     0.072 C 
HETATM    8  O   LIG     1      25.684  24.743  17.932  1.00  0.00    -0.264 OA
ENDROOT
BRANCH   3   9
HETATM    9  C   LIG     1      25.080  22.079  18.935  1.00  0.00     0.060 A 
HETATM   10  C   LIG     1      23.700  21.972  19.165  1.00  0.00     0.031 A 
HETATM   11  C   LIG     1      22.958  20.963  18.544  1.00  0.00     0.002 A 
HETATM   12  C   LIG     1      23.588  20.059  17.683  1.00  0.00     0.000 A 
HETATM   13  C   LIG     1      24.961  20.167  17.440  1.00  0.00     0.002 A 
HETATM   14  C   LIG     1      25.704  21.175  18.061  1.00  0.00     0.031 A 
ENDBRANCH   3   9
BRANCH   5  15
HETATM   15  N   LIG     1      27.427  26.356  19.713  1.00  0.00    -0.393 N 
HETATM   16  H   LIG     1      27.025  27.168  20.232  1.00  0.00     0.156 HD
HETATM   17  H   LIG     1      28.203  26.532  19.039  1.00  0.00     0.156 HD
ENDBRANCH   5  15
TORSDOF 2
ENDMDL
MODEL 15
REMARK VINA RESULT:      -4.2      2.623      5.963
REMARK  2 active torsions:
REMARK  status: ('A' for Active; 'I' for Inactive)
REMARK    1  A    between atoms: N_3  and  C_4 
REMARK    2  A    between atoms: C_11  and  N_12 
ROOT
HETATM    1  C   LIG     1      12.822  30.671  16.783  1.00  0.00     0.178 C 
HETATM    2  N   LIG     1      13.919  31.019  15.874  1.00  0.00    -0.289 N 
HETATM    3  N   LIG     1      14.193  30.377  14.740  1.00  0.00    -0.217 N 
HETATM    4  C   LIG     1      15.333  30.881  14.229  1.00  0.00     0.295 A 
HETATM    5  C   LIG     1      15.797  31.883  15.049  1.00  0.00     0.120 A 
HETATM    6  C   LIG     1      14.876  31.961  16.086  1.00  0.00     0.056 A 
HETATM    7  C   LIG     1      14.951  32.864  17.282  1.00  0.00     0.072 C 
HETATM    8  O   LIG     1      15.879  30.487  13.164  1.00  0.00    -0.264 OA
ENDROOT
BRANCH   3   9
HETATM    9  C   LIG     1      13.433  29.289  14.187  1.00  0.00     0.060 A 
HETATM   10  C   LIG     1      12.099  29.481  13.795  1.00  0.00     0.031 A 
HETATM   11  C   LIG     1      11.364  28.422  13.252  1.00  0.00     0.002 A 
HETATM   12  C   LIG     1      11.960  27.167  13.091  1.00  0.00     0.000 A 
HETATM   13  C   LIG     1      13.291  26.972  13.468  1.00  0.00     0.002 A 
HETATM   14  C   LIG     1      14.027  28.029  14.011  1.00  0.00     0.031 A 
ENDBRANCH   3   9
BRANCH   5  15
HETATM   15  N   LIG     1      16.996  32.641  14.875  1.00  0.00    -0.393 N 
HETATM   16  H   LIG     1      16.954  33.682  14.814  1.00  0.00     0.156 HD
HETATM   17  H   LIG     1      17.925  32.175  14.790  1.00  0.00     0.156 HD
ENDBRANCH   5  15
TORSDOF 2
ENDMDL
MODEL 16
REMARK VINA RESULT:      -4.0     14.371     15.020
REMARK  2 active torsions:
REMARK  status: ('A' for Active; 'I' for Inactive)
REMARK    1  A    between atoms: N_3  and  C_4 
REMARK    2  A    between atoms: C_11  and  N_12 
ROOT
HETATM    1  C   LIG     1      26.233  20.229  21.284  1.00  0.00     0.178 C 
HETATM    2  N   LIG     1      25.094  20.988  20.757  1.00  0.00    -0.289 N 
HETATM    3  N   LIG     1      24.206  21.638  21.508  1.00  0.00    -0.217 N 
HETATM    4  C   LIG     1      23.235  22.113  20.704  1.00  0.00     0.295 A 
HETATM    5  C   LIG     1      23.513  21.772  19.401  1.00  0.00     0.120 A 
HETATM    6  C   LIG     1      24.706  21.064  19.456  1.00  0.00     0.056 A 
HETATM    7  C   LIG     1      25.416  20.417  18.303  1.00  0.00     0.072 C 
HETATM    8  O   LIG     1      22.233  22.768  21.098  1.00  0.00    -0.264 OA
ENDROOT
BRANCH   3   9
HETATM    9  C   LIG     1      24.247  21.760  22.940  1.00  0.00     0.060 A 
HETATM   10  C   LIG     1      24.962  22.806  23.544  1.00  0.00     0.031 A 
HETATM   11  C   LIG     1      24.995  22.924  24.937  1.00  0.00     0.002 A 
HETATM   12  C   LIG     1      24.308  22.003  25.734  1.00  0.00     0.000 A 
HETATM   13  C   LIG     1      23.585  20.966  25.139  1.00  0.00     0.002 A 
HETATM   14  C   LIG     1      23.551  20.846  23.746  1.00  0.00     0.031 A 
ENDBRANCH   3   9
BRANCH   5  15
HETATM   15  N   LIG     1      22.709  22.058  18.255  1.00  0.00    -0.393 N 
HETATM   16  H   LIG     1      23.098  21.926  17.295  1.00  0.00     0.156 HD
HETATM   17  H   LIG     1      21.734  22.416  18.351  1.00  0.00     0.156 HD
ENDBRANCH   5  15
TORSDOF 2
ENDMDL
MODEL 17
REMARK VINA RESULT:      -4.0     14.054     14.833
REMARK  2 active torsions:
REMARK  status: ('A' for Active; 'I' for Inactive)
REMARK    1  A    between atoms: N_3  and  C_4 
REMARK    2  A    between atoms: C_11  and  N_12 
ROOT
HETATM    1  C   LIG     1      22.873  22.027  19.372  1.00  0.00     0.178 C 
HETATM    2  N   LIG     1      23.890  21.292  18.612  1.00  0.00    -0.289 N 
HETATM    3  N   LIG     1      25.145  21.703  18.437  1.00  0.00    -0.217 N 
HETATM    4  C   LIG     1      25.757  20.851  17.591  1.00  0.00     0.295 A 
HETATM    5  C   LIG     1      24.877  19.860  17.224  1.00  0.00     0.120 A 
HETATM    6  C   LIG     1      23.697  20.155  17.893  1.00  0.00     0.056 A 
HETATM    7  C   LIG     1      22.400  19.408  17.790  1.00  0.00     0.072 C 
HETATM    8  O   LIG     1      26.952  20.958  17.204  1.00  0.00    -0.264 OA
ENDROOT
BRANCH   3   9
HETATM    9  C   LIG     1      25.729  22.887  19.006  1.00  0.00     0.060 A 
HETATM   10  C   LIG     1      26.311  22.849  20.283  1.00  0.00     0.031 A 
HETATM   11  C   LIG     1      26.883  24.001  20.831  1.00  0.00     0.002 A 
HETATM   12  C   LIG     1      26.883  25.196  20.105  1.00  0.00     0.000 A 
HETATM   13  C   LIG     1      26.315  25.239  18.829  1.00  0.00     0.002 A 
HETATM   14  C   LIG     1      25.742  24.088  18.279  1.00  0.00     0.031 A 
ENDBRANCH   3   9
BRANCH   5  15
HETATM   15  N   LIG     1      25.130  18.789  16.313  1.00  0.00    -0.393 N 
HETATM   16  H   LIG     1      24.815  18.859  15.320  1.00  0.00     0.156 HD
HETATM   17  H   LIG     1      25.615  17.919  16.620  1.00  0.00     0.156 HD
ENDBRANCH   5  15
TORSDOF 2
ENDMDL
MODEL 18
REMARK VINA RESULT:      -4.0     13.846     14.976
REMARK  2 active torsions:
REMARK  status: ('A' for Active; 'I' for Inactive)
REMARK    1  A    between atoms: N_3  and  C_4 
REMARK    2  A    between atoms: C_11  and  N_12 
ROOT
HETATM    1  C   LIG     1      27.118  23.212  22.292  1.00  0.00     0.178 C 
HETATM    2  N   LIG     1      26.919  24.157  21.188  1.00  0.00    -0.289 N 
HETATM    3  N   LIG     1      26.019  24.007  20.218  1.00  0.00    -0.217 N 
HETATM    4  C   LIG     1      26.200  24.989  19.314  1.00  0.00     0.295 A 
HETATM    5  C   LIG     1      27.234  25.799  19.720  1.00  0.00     0.120 A 
HETATM    6  C   LIG     1      27.672  25.256  20.920  1.00  0.00     0.056 A 
HETATM    7  C   LIG     1      28.826  25.737  21.750  1.00  0.00     0.072 C 
HETATM    8  O   LIG     1      25.519  25.132  18.263  1.00  0.00    -0.264 OA
ENDROOT
BRANCH   3   9
HETATM    9  C   LIG     1      25.056  22.942  20.123  1.00  0.00     0.060 A 
HETATM   10  C   LIG     1      25.261  21.878  19.232  1.00  0.00     0.031 A 
HETATM   11  C   LIG     1      24.326  20.842  19.146  1.00  0.00     0.002 A 
HETATM   12  C   LIG     1      23.185  20.859  19.955  1.00  0.00     0.000 A 
HETATM   13  C   LIG     1      22.981  21.911  20.853  1.00  0.00     0.002 A 
HETATM   14  C   LIG     1      23.915  22.948  20.940  1.00  0.00     0.031 A 
ENDBRANCH   3   9
BRANCH   5  15
HETATM   15  N   LIG     1      27.759  26.928  19.019  1.00  0.00    -0.393 N 
HETATM   16  H   LIG     1      27.116  27.672  18.667  1.00  0.00     0.156 HD
HETATM   17  H   LIG     1      28.780  27.024  18.832  1.00  0.00     0.156 HD
ENDBRANCH   5  15
TORSDOF 2
ENDMDL
MODEL 19
REMARK VINA RESULT:      -4.0     14.085     15.240
REMARK  2 active torsions:
REMARK  status: ('A' for Active; 'I' for Inactive)
REMARK    1  A    between atoms: N_3  and  C_4 
REMARK    2  A    between atoms: C_11  and  N_12 
ROOT
HETATM    1  C   LIG     1      27.954  21.673  20.016  1.00  0.00     0.178 C 
HETATM    2  N   LIG     1      27.784  23.113  19.799  1.00  0.00    -0.289 N 
HETATM    3  N   LIG     1      26.615  23.710  19.570  1.00  0.00    -0.217 N 
HETATM    4  C   LIG     1      26.847  25.008  19.294  1.00  0.00     0.295 A 
HETATM    5  C   LIG     1      28.199  25.255  19.360  1.00  0.00     0.120 A 
HETATM    6  C   LIG     1      28.776  24.037  19.692  1.00  0.00     0.056 A 
HETATM    7  C   LIG     1      30.242  23.751  19.833  1.00  0.00     0.072 C 
HETATM    8  O   LIG     1      25.955  25.854  19.019  1.00  0.00    -0.264 OA
ENDROOT
BRANCH   3   9
HETATM    9  C   LIG     1      25.330  23.064  19.561  1.00  0.00     0.060 A 
HETATM   10  C   LIG     1      24.577  22.965  20.741  1.00  0.00     0.031 A 
HETATM   11  C   LIG     1      23.325  22.342  20.727  1.00  0.00     0.002 A 
HETATM   12  C   LIG     1      22.816  21.820  19.534  1.00  0.00     0.000 A 
HETATM   13  C   LIG     1      23.556  21.926  18.353  1.00  0.00     0.002 A 
HETATM   14  C   LIG     1      24.808  22.549  18.365  1.00  0.00     0.031 A 
ENDBRANCH   3   9
BRANCH   5  15
HETATM   15  N   LIG     1      28.852  26.498  19.097  1.00  0.00    -0.393 N 
HETATM   16  H   LIG     1      28.289  27.361  18.927  1.00  0.00     0.156 HD
HETATM   17  H   LIG     1      29.892  26.566  19.054  1.00  0.00     0.156 HD
ENDBRANCH   5  15
TORSDOF 2
ENDMDL
MODEL 20
REMARK VINA RESULT:      -3.9     14.690     15.352
REMARK  2 active torsions:
REMARK  status: ('A' for Active; 'I' for Inactive)
REMARK    1  A    between atoms: N_3  and  C_4 
REMARK    2  A    between atoms: C_11  and  N_12 
ROOT
HETATM    1  C   LIG     1      22.257  22.793  21.370  1.00  0.00     0.178 C 
HETATM    2  N   LIG     1      23.327  21.843  21.048  1.00  0.00    -0.289 N 
HETATM    3  N   LIG     1      24.193  21.351  21.932  1.00  0.00    -0.217 N 
HETATM    4  C   LIG     1      25.106  20.614  21.270  1.00  0.00     0.295 A 
HETATM    5  C   LIG     1      24.810  20.620  19.927  1.00  0.00     0.120 A 
HETATM    6  C   LIG     1      23.668  21.401  19.808  1.00  0.00     0.056 A 
HETATM    7  C   LIG     1      22.967  21.771  18.534  1.00  0.00     0.072 C 
HETATM    8  O   LIG     1      26.075  20.016  21.810  1.00  0.00    -0.264 OA
ENDROOT
BRANCH   3   9
HETATM    9  C   LIG     1      24.189  21.613  23.346  1.00  0.00     0.060 A 
HETATM   10  C   LIG     1      23.494  20.766  24.224  1.00  0.00     0.031 A 
HETATM   11  C   LIG     1      23.497  21.021  25.598  1.00  0.00     0.002 A 
HETATM   12  C   LIG     1      24.199  22.119  26.106  1.00  0.00     0.000 A 
HETATM   13  C   LIG     1      24.903  22.960  25.239  1.00  0.00     0.002 A 
HETATM   14  C   LIG     1      24.901  22.707  23.864  1.00  0.00     0.031 A 
ENDBRANCH   3   9
BRANCH   5  15
HETATM   15  N   LIG     1      25.558  19.987  18.887  1.00  0.00    -0.393 N 
HETATM   16  H   LIG     1      25.747  20.493  17.993  1.00  0.00     0.156 HD
HETATM   17  H   LIG     1      25.913  19.012  18.990  1.00  0.00     0.156 HD
ENDBRANCH   5  15
TORSDOF 2
ENDMDL
