REMARK  2 active torsions:
REMARK  status: ('A' for Active; 'I' for Inactive)
REMARK    1  A    between atoms: N_3  and  C_4 
REMARK    2  A    between atoms: C_11  and  N_12 
ROOT
HETATM    1  C   LIG     1      -0.191  -2.100   0.277  1.00  0.00     0.178 C 
HETATM    2  N   LIG     1      -0.802  -0.779   0.097  1.00  0.00    -0.289 N 
HETATM    3  N   LIG     1      -0.120   0.350  -0.088  1.00  0.00    -0.217 N 
HETATM    4  C   LIG     1      -0.991   1.378  -0.089  1.00  0.00     0.295 A 
HETATM    5  C   LIG     1      -2.267   0.896   0.086  1.00  0.00     0.120 A 
HETATM    6  C   LIG     1      -2.125  -0.481   0.193  1.00  0.00     0.056 A 
HETATM    7  C   LIG     1      -3.219  -1.475   0.451  1.00  0.00     0.072 C 
HETATM    8  O   LIG     1      -0.672   2.589  -0.230  1.00  0.00    -0.264 OA
ENDROOT
BRANCH   3   9
HETATM    9  C   LIG     1       1.309   0.458  -0.206  1.00  0.00     0.060 A 
HETATM   10  C   LIG     1       1.992  -0.230  -1.221  1.00  0.00     0.031 A 
HETATM   11  C   LIG     1       3.381  -0.118  -1.336  1.00  0.00     0.002 A 
HETATM   12  C   LIG     1       4.095   0.687  -0.443  1.00  0.00     0.000 A 
HETATM   13  C   LIG     1       3.420   1.384   0.563  1.00  0.00     0.002 A 
HETATM   14  C   LIG     1       2.031   1.273   0.680  1.00  0.00     0.031 A 
ENDBRANCH   3   9
BRANCH   5  15
HETATM   15  N   LIG     1      -3.465   1.669   0.178  1.00  0.00    -0.393 N 
HETATM   16  H   LIG     1      -3.428   2.708   0.083  1.00  0.00     0.156 HD
HETATM   17  H   LIG     1      -4.389   1.219   0.356  1.00  0.00     0.156 HD
ENDBRANCH   5  15
TORSDOF 2
