REMARK  2 active torsions:
REMARK  status: ('A' for Active; 'I' for Inactive)
REMARK    1  A    between atoms: C_2  and  C_3 
REMARK    2  A    between atoms: C_2  and  C_14 
ROOT
HETATM    1  C   LIG     1       0.139   0.453   0.502  1.00  0.00     0.205 A 
HETATM    2  C   LIG     1       1.119   1.133  -0.414  1.00  0.00     0.179 A 
HETATM    3  O   LIG     1       0.891   2.199  -1.045  1.00  0.00    -0.291 OA
HETATM    4  C   LIG     1       0.963  -0.710   0.988  1.00  0.00     0.179 A 
HETATM    5  C   LIG     1       2.283  -0.693   0.373  1.00  0.00     0.025 A 
HETATM    6  C   LIG     1       3.349  -1.579   0.532  1.00  0.00     0.016 A 
HETATM    7  C   LIG     1       4.533  -1.330  -0.183  1.00  0.00     0.001 A 
HETATM    8  C   LIG     1       4.628  -0.210  -1.035  1.00  0.00     0.001 A 
HETATM    9  C   LIG     1       3.540   0.668  -1.177  1.00  0.00     0.016 A 
HETATM   10  C   LIG     1       2.376   0.398  -0.457  1.00  0.00     0.025 A 
HETATM   11  O   LIG     1       0.570  -1.569   1.821  1.00  0.00    -0.291 OA
ENDROOT
BRANCH   1  12
HETATM   12  C   LIG     1      -1.081  -0.028  -0.265  1.00  0.00     0.153 C 
HETATM   13  O   LIG     1      -0.897  -0.770  -1.222  1.00  0.00    -0.296 OA
BRANCH  12  14
HETATM   14  C   LIG     1      -2.523   0.358   0.081  1.00  0.00     0.011 C 
HETATM   15  C   LIG     1      -3.150   1.070  -1.134  1.00  0.00     0.022 C 
HETATM   16  C   LIG     1      -3.320  -0.926   0.384  1.00  0.00     0.022 C 
HETATM   17  C   LIG     1      -2.630   1.296   1.303  1.00  0.00     0.022 C 
ENDBRANCH  12  14
ENDBRANCH   1  12
TORSDOF 2
