MODEL 1
REMARK VINA RESULT:      -7.6      0.000      0.000
REMARK  2 active torsions:
REMARK  status: ('A' for Active; 'I' for Inactive)
REMARK    1  A    between atoms: C_2  and  C_3 
REMARK    2  A    between atoms: C_2  and  C_14 
ROOT
HETATM    1  C   LIG     1      17.289  37.454  21.738  1.00  0.00     0.205 A 
HETATM    2  C   LIG     1      17.952  38.039  22.954  1.00  0.00     0.179 A 
HETATM    3  O   LIG     1      18.486  39.179  23.002  1.00  0.00    -0.291 OA
HETATM    4  C   LIG     1      16.813  36.133  22.281  1.00  0.00     0.179 A 
HETATM    5  C   LIG     1      17.202  35.984  23.676  1.00  0.00     0.025 A 
HETATM    6  C   LIG     1      16.977  34.922  24.553  1.00  0.00     0.016 A 
HETATM    7  C   LIG     1      17.460  35.032  25.868  1.00  0.00     0.001 A 
HETATM    8  C   LIG     1      18.153  36.191  26.278  1.00  0.00     0.001 A 
HETATM    9  C   LIG     1      18.366  37.246  25.375  1.00  0.00     0.016 A 
HETATM   10  C   LIG     1      17.877  37.112  24.075  1.00  0.00     0.025 A 
HETATM   11  O   LIG     1      16.157  35.282  21.624  1.00  0.00    -0.291 OA
ENDROOT
BRANCH   1  12
HETATM   12  C   LIG     1      18.291  37.251  20.614  1.00  0.00     0.153 C 
HETATM   13  O   LIG     1      18.612  36.102  20.338  1.00  0.00    -0.296 OA
BRANCH  12  14
HETATM   14  C   LIG     1      18.924  38.391  19.809  1.00  0.00     0.011 C 
HETATM   15  C   LIG     1      20.443  38.400  20.076  1.00  0.00     0.022 C 
HETATM   16  C   LIG     1      18.674  38.137  18.310  1.00  0.00     0.022 C 
HETATM   17  C   LIG     1      18.359  39.783  20.168  1.00  0.00     0.022 C 
ENDBRANCH  12  14
ENDBRANCH   1  12
TORSDOF 2
ENDMDL
MODEL 2
REMARK VINA RESULT:      -7.4      1.293      5.187
REMARK  2 active torsions:
REMARK  status: ('A' for Active; 'I' for Inactive)
REMARK    1  A    between atoms: C_2  and  C_3 
REMARK    2  A    between atoms: C_2  and  C_14 
ROOT
HETATM    1  C   LIG     1      16.557  36.924  22.964  1.00  0.00     0.205 A 
HETATM    2  C   LIG     1      17.217  36.164  21.847  1.00  0.00     0.179 A 
HETATM    3  O   LIG     1      17.126  34.920  21.673  1.00  0.00    -0.291 OA
HETATM    4  C   LIG     1      16.975  38.333  22.636  1.00  0.00     0.179 A 
HETATM    5  C   LIG     1      17.819  38.353  21.450  1.00  0.00     0.025 A 
HETATM    6  C   LIG     1      18.426  39.433  20.808  1.00  0.00     0.016 A 
HETATM    7  C   LIG     1      19.197  39.178  19.661  1.00  0.00     0.001 A 
HETATM    8  C   LIG     1      19.344  37.860  19.181  1.00  0.00     0.001 A 
HETATM    9  C   LIG     1      18.721  36.789  19.845  1.00  0.00     0.016 A 
HETATM   10  C   LIG     1      17.962  37.069  20.982  1.00  0.00     0.025 A 
HETATM   11  O   LIG     1      16.630  39.354  23.289  1.00  0.00    -0.291 OA
ENDROOT
BRANCH   1  12
HETATM   12  C   LIG     1      17.106  36.495  24.314  1.00  0.00     0.153 C 
HETATM   13  O   LIG     1      16.813  35.377  24.720  1.00  0.00    -0.296 OA
BRANCH  12  14
HETATM   14  C   LIG     1      18.000  37.371  25.199  1.00  0.00     0.011 C 
HETATM   15  C   LIG     1      17.133  38.469  25.845  1.00  0.00     0.022 C 
HETATM   16  C   LIG     1      18.615  36.492  26.306  1.00  0.00     0.022 C 
HETATM   17  C   LIG     1      19.150  38.052  24.424  1.00  0.00     0.022 C 
ENDBRANCH  12  14
ENDBRANCH   1  12
TORSDOF 2
ENDMDL
MODEL 3
REMARK VINA RESULT:      -6.5      2.631      4.802
REMARK  2 active torsions:
REMARK  status: ('A' for Active; 'I' for Inactive)
REMARK    1  A    between atoms: C_2  and  C_3 
REMARK    2  A    between atoms: C_2  and  C_14 
ROOT
HETATM    1  C   LIG     1      16.912  34.739  21.405  1.00  0.00     0.205 A 
HETATM    2  C   LIG     1      16.873  35.270  22.811  1.00  0.00     0.179 A 
HETATM    3  O   LIG     1      16.625  34.578  23.833  1.00  0.00    -0.291 OA
HETATM    4  C   LIG     1      17.293  35.980  20.641  1.00  0.00     0.179 A 
HETATM    5  C   LIG     1      17.429  37.113  21.545  1.00  0.00     0.025 A 
HETATM    6  C   LIG     1      17.756  38.440  21.263  1.00  0.00     0.016 A 
HETATM    7  C   LIG     1      17.827  39.349  22.333  1.00  0.00     0.001 A 
HETATM    8  C   LIG     1      17.573  38.918  23.652  1.00  0.00     0.001 A 
HETATM    9  C   LIG     1      17.246  37.576  23.909  1.00  0.00     0.016 A 
HETATM   10  C   LIG     1      17.181  36.694  22.830  1.00  0.00     0.025 A 
HETATM   11  O   LIG     1      17.481  36.027  19.397  1.00  0.00    -0.291 OA
ENDROOT
BRANCH   1  12
HETATM   12  C   LIG     1      15.545  34.234  20.975  1.00  0.00     0.153 C 
HETATM   13  O   LIG     1      14.567  34.906  21.279  1.00  0.00    -0.296 OA
BRANCH  12  14
HETATM   14  C   LIG     1      15.314  32.939  20.189  1.00  0.00     0.011 C 
HETATM   15  C   LIG     1      14.100  32.204  20.792  1.00  0.00     0.022 C 
HETATM   16  C   LIG     1      15.012  33.298  18.721  1.00  0.00     0.022 C 
HETATM   17  C   LIG     1      16.524  31.981  20.216  1.00  0.00     0.022 C 
ENDBRANCH  12  14
ENDBRANCH   1  12
TORSDOF 2
ENDMDL
MODEL 4
REMARK VINA RESULT:      -6.5      6.193      8.808
REMARK  2 active torsions:
REMARK  status: ('A' for Active; 'I' for Inactive)
REMARK    1  A    between atoms: C_2  and  C_3 
REMARK    2  A    between atoms: C_2  and  C_14 
ROOT
HETATM    1  C   LIG     1      14.662  33.260  17.862  1.00  0.00     0.205 A 
HETATM    2  C   LIG     1      14.138  31.962  17.314  1.00  0.00     0.179 A 
HETATM    3  O   LIG     1      13.293  31.227  17.891  1.00  0.00    -0.291 OA
HETATM    4  C   LIG     1      15.576  33.693  16.746  1.00  0.00     0.179 A 
HETATM    5  C   LIG     1      15.580  32.704  15.677  1.00  0.00     0.025 A 
HETATM    6  C   LIG     1      16.285  32.700  14.473  1.00  0.00     0.016 A 
HETATM    7  C   LIG     1      16.104  31.613  13.601  1.00  0.00     0.001 A 
HETATM    8  C   LIG     1      15.230  30.561  13.945  1.00  0.00     0.001 A 
HETATM    9  C   LIG     1      14.531  30.589  15.164  1.00  0.00     0.016 A 
HETATM   10  C   LIG     1      14.729  31.679  16.012  1.00  0.00     0.025 A 
HETATM   11  O   LIG     1      16.234  34.767  16.733  1.00  0.00    -0.291 OA
ENDROOT
BRANCH   1  12
HETATM   12  C   LIG     1      15.442  33.034  19.147  1.00  0.00     0.153 C 
HETATM   13  O   LIG     1      16.142  32.032  19.220  1.00  0.00    -0.296 OA
BRANCH  12  14
HETATM   14  C   LIG     1      15.404  33.978  20.354  1.00  0.00     0.011 C 
HETATM   15  C   LIG     1      14.915  35.362  19.885  1.00  0.00     0.022 C 
HETATM   16  C   LIG     1      14.414  33.414  21.392  1.00  0.00     0.022 C 
HETATM   17  C   LIG     1      16.778  34.153  21.037  1.00  0.00     0.022 C 
ENDBRANCH  12  14
ENDBRANCH   1  12
TORSDOF 2
ENDMDL
MODEL 5
REMARK VINA RESULT:      -5.4     17.302     18.697
REMARK  2 active torsions:
REMARK  status: ('A' for Active; 'I' for Inactive)
REMARK    1  A    between atoms: C_2  and  C_3 
REMARK    2  A    between atoms: C_2  and  C_14 
ROOT
HETATM    1  C   LIG     1      23.945  20.163  19.492  1.00  0.00     0.205 A 
HETATM    2  C   LIG     1      25.189  20.462  18.702  1.00  0.00     0.179 A 
HETATM    3  O   LIG     1      26.174  21.117  19.134  1.00  0.00    -0.291 OA
HETATM    4  C   LIG     1      23.170  19.335  18.501  1.00  0.00     0.179 A 
HETATM    5  C   LIG     1      23.911  19.206  17.253  1.00  0.00     0.025 A 
HETATM    6  C   LIG     1      23.563  18.539  16.078  1.00  0.00     0.016 A 
HETATM    7  C   LIG     1      24.471  18.564  15.006  1.00  0.00     0.001 A 
HETATM    8  C   LIG     1      25.698  19.248  15.128  1.00  0.00     0.001 A 
HETATM    9  C   LIG     1      26.025  19.912  16.323  1.00  0.00     0.016 A 
HETATM   10  C   LIG     1      25.106  19.873  17.372  1.00  0.00     0.025 A 
HETATM   11  O   LIG     1      22.045  18.814  18.725  1.00  0.00    -0.291 OA
ENDROOT
BRANCH   1  12
HETATM   12  C   LIG     1      23.197  21.440  19.835  1.00  0.00     0.153 C 
HETATM   13  O   LIG     1      22.680  22.063  18.916  1.00  0.00    -0.296 OA
BRANCH  12  14
HETATM   14  C   LIG     1      23.051  21.996  21.256  1.00  0.00     0.011 C 
HETATM   15  C   LIG     1      24.331  22.776  21.616  1.00  0.00     0.022 C 
HETATM   16  C   LIG     1      21.846  22.957  21.289  1.00  0.00     0.022 C 
HETATM   17  C   LIG     1      22.831  20.903  22.323  1.00  0.00     0.022 C 
ENDBRANCH  12  14
ENDBRANCH   1  12
TORSDOF 2
ENDMDL
MODEL 6
REMARK VINA RESULT:      -5.4     16.156     17.430
REMARK  2 active torsions:
REMARK  status: ('A' for Active; 'I' for Inactive)
REMARK    1  A    between atoms: C_2  and  C_3 
REMARK    2  A    between atoms: C_2  and  C_14 
ROOT
HETATM    1  C   LIG     1      25.603  21.817  19.201  1.00  0.00     0.205 A 
HETATM    2  C   LIG     1      25.476  23.123  19.936  1.00  0.00     0.179 A 
HETATM    3  O   LIG     1      24.716  23.322  20.921  1.00  0.00    -0.291 OA
HETATM    4  C   LIG     1      26.659  22.163  18.185  1.00  0.00     0.179 A 
HETATM    5  C   LIG     1      27.066  23.555  18.325  1.00  0.00     0.025 A 
HETATM    6  C   LIG     1      28.001  24.285  17.591  1.00  0.00     0.016 A 
HETATM    7  C   LIG     1      28.213  25.631  17.938  1.00  0.00     0.001 A 
HETATM    8  C   LIG     1      27.494  26.214  19.002  1.00  0.00     0.001 A 
HETATM    9  C   LIG     1      26.559  25.456  19.726  1.00  0.00     0.016 A 
HETATM   10  C   LIG     1      26.366  24.123  19.362  1.00  0.00     0.025 A 
HETATM   11  O   LIG     1      27.134  21.358  17.341  1.00  0.00    -0.291 OA
ENDROOT
BRANCH   1  12
HETATM   12  C   LIG     1      24.297  21.443  18.522  1.00  0.00     0.153 C 
HETATM   13  O   LIG     1      23.722  22.310  17.875  1.00  0.00    -0.296 OA
BRANCH  12  14
HETATM   14  C   LIG     1      23.653  20.055  18.599  1.00  0.00     0.011 C 
HETATM   15  C   LIG     1      24.714  18.996  18.241  1.00  0.00     0.022 C 
HETATM   16  C   LIG     1      23.163  19.815  20.041  1.00  0.00     0.022 C 
HETATM   17  C   LIG     1      22.452  19.882  17.644  1.00  0.00     0.022 C 
ENDBRANCH  12  14
ENDBRANCH   1  12
TORSDOF 2
ENDMDL
MODEL 7
REMARK VINA RESULT:      -5.4     15.031     16.058
REMARK  2 active torsions:
REMARK  status: ('A' for Active; 'I' for Inactive)
REMARK    1  A    between atoms: C_2  and  C_3 
REMARK    2  A    between atoms: C_2  and  C_14 
ROOT
HETATM    1  C   LIG     1      26.679  23.397  19.681  1.00  0.00     0.205 A 
HETATM    2  C   LIG     1      25.293  22.950  19.306  1.00  0.00     0.179 A 
HETATM    3  O   LIG     1      24.851  22.893  18.128  1.00  0.00    -0.291 OA
HETATM    4  C   LIG     1      26.643  23.215  21.175  1.00  0.00     0.179 A 
HETATM    5  C   LIG     1      25.336  22.731  21.599  1.00  0.00     0.025 A 
HETATM    6  C   LIG     1      24.870  22.439  22.881  1.00  0.00     0.016 A 
HETATM    7  C   LIG     1      23.550  21.976  23.019  1.00  0.00     0.001 A 
HETATM    8  C   LIG     1      22.729  21.815  21.883  1.00  0.00     0.001 A 
HETATM    9  C   LIG     1      23.224  22.116  20.602  1.00  0.00     0.016 A 
HETATM   10  C   LIG     1      24.536  22.574  20.493  1.00  0.00     0.025 A 
HETATM   11  O   LIG     1      27.612  23.435  21.948  1.00  0.00    -0.291 OA
ENDROOT
BRANCH   1  12
HETATM   12  C   LIG     1      26.899  24.855  19.316  1.00  0.00     0.153 C 
HETATM   13  O   LIG     1      26.006  25.650  19.581  1.00  0.00    -0.296 OA
BRANCH  12  14
HETATM   14  C   LIG     1      28.164  25.392  18.638  1.00  0.00     0.011 C 
HETATM   15  C   LIG     1      28.199  24.884  17.183  1.00  0.00     0.022 C 
HETATM   16  C   LIG     1      28.110  26.932  18.637  1.00  0.00     0.022 C 
HETATM   17  C   LIG     1      29.468  24.953  19.338  1.00  0.00     0.022 C 
ENDBRANCH  12  14
ENDBRANCH   1  12
TORSDOF 2
ENDMDL
MODEL 8
REMARK VINA RESULT:      -5.3     17.660     19.830
REMARK  2 active torsions:
REMARK  status: ('A' for Active; 'I' for Inactive)
REMARK    1  A    between atoms: C_2  and  C_3 
REMARK    2  A    between atoms: C_2  and  C_14 
ROOT
HETATM    1  C   LIG     1      20.053  21.464  33.887  1.00  0.00     0.205 A 
HETATM    2  C   LIG     1      19.972  20.034  33.426  1.00  0.00     0.179 A 
HETATM    3  O   LIG     1      20.119  19.030  34.173  1.00  0.00    -0.291 OA
HETATM    4  C   LIG     1      19.758  22.194  32.603  1.00  0.00     0.179 A 
HETATM    5  C   LIG     1      19.556  21.249  31.513  1.00  0.00     0.025 A 
HETATM    6  C   LIG     1      19.272  21.491  30.169  1.00  0.00     0.016 A 
HETATM    7  C   LIG     1      19.116  20.387  29.313  1.00  0.00     0.001 A 
HETATM    8  C   LIG     1      19.246  19.074  29.813  1.00  0.00     0.001 A 
HETATM    9  C   LIG     1      19.532  18.858  31.172  1.00  0.00     0.016 A 
HETATM   10  C   LIG     1      19.682  19.970  32.000  1.00  0.00     0.025 A 
HETATM   11  O   LIG     1      19.683  23.446  32.491  1.00  0.00    -0.291 OA
ENDROOT
BRANCH   1  12
HETATM   12  C   LIG     1      21.447  21.795  34.393  1.00  0.00     0.153 C 
HETATM   13  O   LIG     1      22.401  21.324  33.787  1.00  0.00    -0.296 OA
BRANCH  12  14
HETATM   14  C   LIG     1      21.732  22.678  35.612  1.00  0.00     0.011 C 
HETATM   15  C   LIG     1      22.133  21.774  36.795  1.00  0.00     0.022 C 
HETATM   16  C   LIG     1      22.902  23.623  35.276  1.00  0.00     0.022 C 
HETATM   17  C   LIG     1      20.523  23.536  36.045  1.00  0.00     0.022 C 
ENDBRANCH  12  14
ENDBRANCH   1  12
TORSDOF 2
ENDMDL
MODEL 9
REMARK VINA RESULT:      -5.3     16.896     18.382
REMARK  2 active torsions:
REMARK  status: ('A' for Active; 'I' for Inactive)
REMARK    1  A    between atoms: C_2  and  C_3 
REMARK    2  A    between atoms: C_2  and  C_14 
ROOT
HETATM    1  C   LIG     1      24.282  21.850  19.308  1.00  0.00     0.205 A 
HETATM    2  C   LIG     1      23.954  20.839  18.244  1.00  0.00     0.179 A 
HETATM    3  O   LIG     1      22.818  20.326  18.068  1.00  0.00    -0.291 OA
HETATM    4  C   LIG     1      25.733  22.120  19.008  1.00  0.00     0.179 A 
HETATM    5  C   LIG     1      26.182  21.306  17.887  1.00  0.00     0.025 A 
HETATM    6  C   LIG     1      27.441  21.234  17.289  1.00  0.00     0.016 A 
HETATM    7  C   LIG     1      27.611  20.359  16.202  1.00  0.00     0.001 A 
HETATM    8  C   LIG     1      26.531  19.581  15.738  1.00  0.00     0.001 A 
HETATM    9  C   LIG     1      25.273  19.673  16.357  1.00  0.00     0.016 A 
HETATM   10  C   LIG     1      25.129  20.548  17.434  1.00  0.00     0.025 A 
HETATM   11  O   LIG     1      26.453  22.944  19.631  1.00  0.00    -0.291 OA
ENDROOT
BRANCH   1  12
HETATM   12  C   LIG     1      24.116  21.255  20.696  1.00  0.00     0.153 C 
HETATM   13  O   LIG     1      24.667  20.186  20.928  1.00  0.00    -0.296 OA
BRANCH  12  14
HETATM   14  C   LIG     1      23.302  21.905  21.820  1.00  0.00     0.011 C 
HETATM   15  C   LIG     1      22.653  20.794  22.668  1.00  0.00     0.022 C 
HETATM   16  C   LIG     1      24.254  22.730  22.707  1.00  0.00     0.022 C 
HETATM   17  C   LIG     1      22.185  22.840  21.306  1.00  0.00     0.022 C 
ENDBRANCH  12  14
ENDBRANCH   1  12
TORSDOF 2
ENDMDL
MODEL 10
REMARK VINA RESULT:      -5.2      1.160      5.443
REMARK  2 active torsions:
REMARK  status: ('A' for Active; 'I' for Inactive)
REMARK    1  A    between atoms: C_2  and  C_3 
REMARK    2  A    between atoms: C_2  and  C_14 
ROOT
HETATM    1  C   LIG     1      16.816  36.663  23.403  1.00  0.00     0.205 A 
HETATM    2  C   LIG     1      16.795  36.323  21.938  1.00  0.00     0.179 A 
HETATM    3  O   LIG     1      16.108  35.401  21.424  1.00  0.00    -0.291 OA
HETATM    4  C   LIG     1      17.752  37.842  23.409  1.00  0.00     0.179 A 
HETATM    5  C   LIG     1      18.233  38.119  22.063  1.00  0.00     0.025 A 
HETATM    6  C   LIG     1      19.115  39.105  21.619  1.00  0.00     0.016 A 
HETATM    7  C   LIG     1      19.415  39.161  20.248  1.00  0.00     0.001 A 
HETATM    8  C   LIG     1      18.834  38.238  19.353  1.00  0.00     0.001 A 
HETATM    9  C   LIG     1      17.948  37.255  19.825  1.00  0.00     0.016 A 
HETATM   10  C   LIG     1      17.667  37.220  21.191  1.00  0.00     0.025 A 
HETATM   11  O   LIG     1      18.064  38.504  24.434  1.00  0.00    -0.291 OA
ENDROOT
BRANCH   1  12
HETATM   12  C   LIG     1      17.382  35.514  24.221  1.00  0.00     0.153 C 
HETATM   13  O   LIG     1      17.737  34.508  23.620  1.00  0.00    -0.296 OA
BRANCH  12  14
HETATM   14  C   LIG     1      17.533  35.536  25.745  1.00  0.00     0.011 C 
HETATM   15  C   LIG     1      18.977  35.133  26.105  1.00  0.00     0.022 C 
HETATM   16  C   LIG     1      17.264  36.967  26.250  1.00  0.00     0.022 C 
HETATM   17  C   LIG     1      16.565  34.575  26.471  1.00  0.00     0.022 C 
ENDBRANCH  12  14
ENDBRANCH   1  12
TORSDOF 2
ENDMDL
MODEL 11
REMARK VINA RESULT:      -5.1     17.707     20.768
REMARK  2 active torsions:
REMARK  status: ('A' for Active; 'I' for Inactive)
REMARK    1  A    between atoms: C_2  and  C_3 
REMARK    2  A    between atoms: C_2  and  C_14 
ROOT
HETATM    1  C   LIG     1      21.229  21.348  35.596  1.00  0.00     0.205 A 
HETATM    2  C   LIG     1      21.029  20.340  34.497  1.00  0.00     0.179 A 
HETATM    3  O   LIG     1      21.329  19.120  34.579  1.00  0.00    -0.291 OA
HETATM    4  C   LIG     1      20.661  22.586  34.955  1.00  0.00     0.179 A 
HETATM    5  C   LIG     1      20.207  22.297  33.601  1.00  0.00     0.025 A 
HETATM    6  C   LIG     1      19.630  23.147  32.657  1.00  0.00     0.016 A 
HETATM    7  C   LIG     1      19.273  22.610  31.409  1.00  0.00     0.001 A 
HETATM    8  C   LIG     1      19.496  21.246  31.131  1.00  0.00     0.001 A 
HETATM    9  C   LIG     1      20.078  20.410  32.099  1.00  0.00     0.016 A 
HETATM   10  C   LIG     1      20.425  20.968  33.330  1.00  0.00     0.025 A 
HETATM   11  O   LIG     1      20.577  23.710  35.516  1.00  0.00    -0.291 OA
ENDROOT
BRANCH   1  12
HETATM   12  C   LIG     1      22.705  21.526  35.911  1.00  0.00     0.153 C 
HETATM   13  O   LIG     1      23.466  21.738  34.974  1.00  0.00    -0.296 OA
BRANCH  12  14
HETATM   14  C   LIG     1      23.299  21.456  37.321  1.00  0.00     0.011 C 
HETATM   15  C   LIG     1      22.613  20.310  38.091  1.00  0.00     0.022 C 
HETATM   16  C   LIG     1      24.808  21.160  37.208  1.00  0.00     0.022 C 
HETATM   17  C   LIG     1      23.119  22.760  38.128  1.00  0.00     0.022 C 
ENDBRANCH  12  14
ENDBRANCH   1  12
TORSDOF 2
ENDMDL
MODEL 12
REMARK VINA RESULT:      -5.0     15.667     16.454
REMARK  2 active torsions:
REMARK  status: ('A' for Active; 'I' for Inactive)
REMARK    1  A    between atoms: C_2  and  C_3 
REMARK    2  A    between atoms: C_2  and  C_14 
ROOT
HETATM    1  C   LIG     1      25.247  21.847  22.069  1.00  0.00     0.205 A 
HETATM    2  C   LIG     1      24.559  21.961  23.401  1.00  0.00     0.179 A 
HETATM    3  O   LIG     1      23.492  21.369  23.712  1.00  0.00    -0.291 OA
HETATM    4  C   LIG     1      26.458  22.713  22.297  1.00  0.00     0.179 A 
HETATM    5  C   LIG     1      26.432  23.283  23.637  1.00  0.00     0.025 A 
HETATM    6  C   LIG     1      27.343  24.140  24.256  1.00  0.00     0.016 A 
HETATM    7  C   LIG     1      27.084  24.544  25.577  1.00  0.00     0.001 A 
HETATM    8  C   LIG     1      25.931  24.087  26.248  1.00  0.00     0.001 A 
HETATM    9  C   LIG     1      25.030  23.224  25.603  1.00  0.00     0.016 A 
HETATM   10  C   LIG     1      25.309  22.838  24.291  1.00  0.00     0.025 A 
HETATM   11  O   LIG     1      27.371  22.905  21.452  1.00  0.00    -0.291 OA
ENDROOT
BRANCH   1  12
HETATM   12  C   LIG     1      24.378  22.410  20.957  1.00  0.00     0.153 C 
HETATM   13  O   LIG     1      23.661  23.367  21.223  1.00  0.00    -0.296 OA
BRANCH  12  14
HETATM   14  C   LIG     1      24.340  21.857  19.529  1.00  0.00     0.011 C 
HETATM   15  C   LIG     1      25.192  22.767  18.622  1.00  0.00     0.022 C 
HETATM   16  C   LIG     1      24.942  20.437  19.532  1.00  0.00     0.022 C 
HETATM   17  C   LIG     1      22.916  21.779  18.939  1.00  0.00     0.022 C 
ENDBRANCH  12  14
ENDBRANCH   1  12
TORSDOF 2
ENDMDL
MODEL 13
REMARK VINA RESULT:      -5.0     15.259     16.824
REMARK  2 active torsions:
REMARK  status: ('A' for Active; 'I' for Inactive)
REMARK    1  A    between atoms: C_2  and  C_3 
REMARK    2  A    between atoms: C_2  and  C_14 
ROOT
HETATM    1  C   LIG     1      25.626  22.128  21.254  1.00  0.00     0.205 A 
HETATM    2  C   LIG     1      26.711  23.006  21.813  1.00  0.00     0.179 A 
HETATM    3  O   LIG     1      27.314  22.799  22.900  1.00  0.00    -0.291 OA
HETATM    4  C   LIG     1      25.331  22.831  19.956  1.00  0.00     0.179 A 
HETATM    5  C   LIG     1      26.165  24.017  19.817  1.00  0.00     0.025 A 
HETATM    6  C   LIG     1      26.212  24.954  18.784  1.00  0.00     0.016 A 
HETATM    7  C   LIG     1      27.123  26.019  18.893  1.00  0.00     0.001 A 
HETATM    8  C   LIG     1      27.961  26.125  20.022  1.00  0.00     0.001 A 
HETATM    9  C   LIG     1      27.895  25.168  21.048  1.00  0.00     0.016 A 
HETATM   10  C   LIG     1      26.982  24.121  20.916  1.00  0.00     0.025 A 
HETATM   11  O   LIG     1      24.491  22.440  19.103  1.00  0.00    -0.291 OA
ENDROOT
BRANCH   1  12
HETATM   12  C   LIG     1      24.407  22.124  22.160  1.00  0.00     0.153 C 
HETATM   13  O   LIG     1      23.680  23.110  22.142  1.00  0.00    -0.296 OA
BRANCH  12  14
HETATM   14  C   LIG     1      24.031  20.969  23.094  1.00  0.00     0.011 C 
HETATM   15  C   LIG     1      22.614  20.481  22.733  1.00  0.00     0.022 C 
HETATM   16  C   LIG     1      25.033  19.816  22.884  1.00  0.00     0.022 C 
HETATM   17  C   LIG     1      24.045  21.359  24.588  1.00  0.00     0.022 C 
ENDBRANCH  12  14
ENDBRANCH   1  12
TORSDOF 2
ENDMDL
MODEL 14
REMARK VINA RESULT:      -5.0     16.124     16.914
REMARK  2 active torsions:
REMARK  status: ('A' for Active; 'I' for Inactive)
REMARK    1  A    between atoms: C_2  and  C_3 
REMARK    2  A    between atoms: C_2  and  C_14 
ROOT
HETATM    1  C   LIG     1      24.514  22.316  20.628  1.00  0.00     0.205 A 
HETATM    2  C   LIG     1      25.874  22.850  20.987  1.00  0.00     0.179 A 
HETATM    3  O   LIG     1      26.770  23.149  20.154  1.00  0.00    -0.291 OA
HETATM    4  C   LIG     1      23.887  22.195  21.992  1.00  0.00     0.179 A 
HETATM    5  C   LIG     1      24.829  22.602  23.025  1.00  0.00     0.025 A 
HETATM    6  C   LIG     1      24.668  22.637  24.411  1.00  0.00     0.016 A 
HETATM    7  C   LIG     1      25.746  23.082  25.194  1.00  0.00     0.001 A 
HETATM    8  C   LIG     1      26.954  23.481  24.584  1.00  0.00     0.001 A 
HETATM    9  C   LIG     1      27.090  23.437  23.186  1.00  0.00     0.016 A 
HETATM   10  C   LIG     1      26.005  22.990  22.431  1.00  0.00     0.025 A 
HETATM   11  O   LIG     1      22.708  21.808  22.208  1.00  0.00    -0.291 OA
ENDROOT
BRANCH   1  12
HETATM   12  C   LIG     1      24.621  20.958  19.956  1.00  0.00     0.153 C 
HETATM   13  O   LIG     1      25.421  20.154  20.419  1.00  0.00    -0.296 OA
BRANCH  12  14
HETATM   14  C   LIG     1      23.796  20.533  18.737  1.00  0.00     0.011 C 
HETATM   15  C   LIG     1      22.917  21.720  18.296  1.00  0.00     0.022 C 
HETATM   16  C   LIG     1      24.758  20.161  17.593  1.00  0.00     0.022 C 
HETATM   17  C   LIG     1      22.876  19.323  19.011  1.00  0.00     0.022 C 
ENDBRANCH  12  14
ENDBRANCH   1  12
TORSDOF 2
ENDMDL
MODEL 15
REMARK VINA RESULT:      -4.9     15.501     16.756
REMARK  2 active torsions:
REMARK  status: ('A' for Active; 'I' for Inactive)
REMARK    1  A    between atoms: C_2  and  C_3 
REMARK    2  A    between atoms: C_2  and  C_14 
ROOT
HETATM    1  C   LIG     1      25.392  23.621  20.248  1.00  0.00     0.205 A 
HETATM    2  C   LIG     1      26.146  24.307  19.142  1.00  0.00     0.179 A 
HETATM    3  O   LIG     1      25.664  24.590  18.013  1.00  0.00    -0.291 OA
HETATM    4  C   LIG     1      26.436  23.596  21.332  1.00  0.00     0.179 A 
HETATM    5  C   LIG     1      27.677  24.194  20.860  1.00  0.00     0.025 A 
HETATM    6  C   LIG     1      28.891  24.366  21.526  1.00  0.00     0.016 A 
HETATM    7  C   LIG     1      29.947  24.986  20.836  1.00  0.00     0.001 A 
HETATM    8  C   LIG     1      29.770  25.418  19.505  1.00  0.00     0.001 A 
HETATM    9  C   LIG     1      28.537  25.234  18.856  1.00  0.00     0.016 A 
HETATM   10  C   LIG     1      27.506  24.615  19.563  1.00  0.00     0.025 A 
HETATM   11  O   LIG     1      26.257  23.134  22.490  1.00  0.00    -0.291 OA
ENDROOT
BRANCH   1  12
HETATM   12  C   LIG     1      24.993  22.212  19.844  1.00  0.00     0.153 C 
HETATM   13  O   LIG     1      25.877  21.458  19.455  1.00  0.00    -0.296 OA
BRANCH  12  14
HETATM   14  C   LIG     1      23.558  21.677  19.890  1.00  0.00     0.011 C 
HETATM   15  C   LIG     1      22.954  21.758  18.474  1.00  0.00     0.022 C 
HETATM   16  C   LIG     1      23.593  20.204  20.343  1.00  0.00     0.022 C 
HETATM   17  C   LIG     1      22.642  22.461  20.854  1.00  0.00     0.022 C 
ENDBRANCH  12  14
ENDBRANCH   1  12
TORSDOF 2
ENDMDL
MODEL 16
REMARK VINA RESULT:      -4.9     16.027     17.100
REMARK  2 active torsions:
REMARK  status: ('A' for Active; 'I' for Inactive)
REMARK    1  A    between atoms: C_2  and  C_3 
REMARK    2  A    between atoms: C_2  and  C_14 
ROOT
HETATM    1  C   LIG     1      24.180  20.755  22.313  1.00  0.00     0.205 A 
HETATM    2  C   LIG     1      23.268  20.178  23.360  1.00  0.00     0.179 A 
HETATM    3  O   LIG     1      22.459  19.233  23.165  1.00  0.00    -0.291 OA
HETATM    4  C   LIG     1      24.919  21.792  23.119  1.00  0.00     0.179 A 
HETATM    5  C   LIG     1      24.438  21.808  24.494  1.00  0.00     0.025 A 
HETATM    6  C   LIG     1      24.835  22.609  25.565  1.00  0.00     0.016 A 
HETATM    7  C   LIG     1      24.206  22.418  26.807  1.00  0.00     0.001 A 
HETATM    8  C   LIG     1      23.203  21.438  26.954  1.00  0.00     0.001 A 
HETATM    9  C   LIG     1      22.822  20.642  25.859  1.00  0.00     0.016 A 
HETATM   10  C   LIG     1      23.460  20.853  24.637  1.00  0.00     0.025 A 
HETATM   11  O   LIG     1      25.834  22.531  22.670  1.00  0.00    -0.291 OA
ENDROOT
BRANCH   1  12
HETATM   12  C   LIG     1      23.385  21.403  21.193  1.00  0.00     0.153 C 
HETATM   13  O   LIG     1      22.597  22.292  21.493  1.00  0.00    -0.296 OA
BRANCH  12  14
HETATM   14  C   LIG     1      23.503  21.013  19.716  1.00  0.00     0.011 C 
HETATM   15  C   LIG     1      22.668  21.999  18.875  1.00  0.00     0.022 C 
HETATM   16  C   LIG     1      24.982  21.113  19.295  1.00  0.00     0.022 C 
HETATM   17  C   LIG     1      23.009  19.581  19.419  1.00  0.00     0.022 C 
ENDBRANCH  12  14
ENDBRANCH   1  12
TORSDOF 2
ENDMDL
MODEL 17
REMARK VINA RESULT:      -4.7     15.800     17.220
REMARK  2 active torsions:
REMARK  status: ('A' for Active; 'I' for Inactive)
REMARK    1  A    between atoms: C_2  and  C_3 
REMARK    2  A    between atoms: C_2  and  C_14 
ROOT
HETATM    1  C   LIG     1      25.648  21.831  24.879  1.00  0.00     0.205 A 
HETATM    2  C   LIG     1      26.187  22.419  23.604  1.00  0.00     0.179 A 
HETATM    3  O   LIG     1      27.364  22.841  23.451  1.00  0.00    -0.291 OA
HETATM    4  C   LIG     1      24.246  21.475  24.458  1.00  0.00     0.179 A 
HETATM    5  C   LIG     1      24.017  21.857  23.071  1.00  0.00     0.025 A 
HETATM    6  C   LIG     1      22.869  21.721  22.290  1.00  0.00     0.016 A 
HETATM    7  C   LIG     1      22.913  22.173  20.960  1.00  0.00     0.001 A 
HETATM    8  C   LIG     1      24.093  22.746  20.441  1.00  0.00     0.001 A 
HETATM    9  C   LIG     1      25.236  22.871  21.249  1.00  0.00     0.016 A 
HETATM   10  C   LIG     1      25.166  22.416  22.566  1.00  0.00     0.025 A 
HETATM   11  O   LIG     1      23.396  20.912  25.197  1.00  0.00    -0.291 OA
ENDROOT
BRANCH   1  12
HETATM   12  C   LIG     1      25.635  22.863  25.993  1.00  0.00     0.153 C 
HETATM   13  O   LIG     1      25.121  23.950  25.758  1.00  0.00    -0.296 OA
BRANCH  12  14
HETATM   14  C   LIG     1      26.225  22.632  27.389  1.00  0.00     0.011 C 
HETATM   15  C   LIG     1      26.313  23.987  28.119  1.00  0.00     0.022 C 
HETATM   16  C   LIG     1      25.288  21.692  28.173  1.00  0.00     0.022 C 
HETATM   17  C   LIG     1      27.634  22.002  27.361  1.00  0.00     0.022 C 
ENDBRANCH  12  14
ENDBRANCH   1  12
TORSDOF 2
ENDMDL
