MODEL 1
REMARK VINA RESULT:      -7.8      0.000      0.000
REMARK  0 active torsions:
REMARK  status: ('A' for Active; 'I' for Inactive)
ROOT
HETATM    1  C   LIG     1      17.238  35.383  23.997  1.00  0.00    -0.025 A 
HETATM    2  C   LIG     1      17.535  34.789  25.238  1.00  0.00     0.012 A 
HETATM    3  C   LIG     1      17.872  35.609  26.341  1.00  0.00     0.001 A 
HETATM    4  C   LIG     1      17.912  37.015  26.207  1.00  0.00     0.008 A 
HETATM    5  C   LIG     1      17.611  37.575  24.961  1.00  0.00    -0.046 A 
HETATM    6  C   LIG     1      17.577  39.010  24.538  1.00  0.00     0.044 A 
HETATM    7  C   LIG     1      17.173  38.937  23.035  1.00  0.00     0.044 A 
HETATM    8  C   LIG     1      17.291  36.770  23.916  1.00  0.00    -0.013 A 
HETATM    9  C   LIG     1      17.027  37.469  22.782  1.00  0.00    -0.046 A 
HETATM   10  C   LIG     1      16.678  36.791  21.609  1.00  0.00     0.008 A 
HETATM   11  C   LIG     1      16.611  35.381  21.641  1.00  0.00     0.001 A 
HETATM   12  C   LIG     1      16.890  34.673  22.834  1.00  0.00     0.012 A 
ENDROOT
TORSDOF 0
ENDMDL
MODEL 2
REMARK VINA RESULT:      -7.7      0.003      3.167
REMARK  0 active torsions:
REMARK  status: ('A' for Active; 'I' for Inactive)
ROOT
HETATM    1  C   LIG     1      17.236  35.382  24.000  1.00  0.00    -0.025 A 
HETATM    2  C   LIG     1      16.889  34.671  22.836  1.00  0.00     0.012 A 
HETATM    3  C   LIG     1      16.610  35.378  21.643  1.00  0.00     0.001 A 
HETATM    4  C   LIG     1      16.678  36.790  21.611  1.00  0.00     0.008 A 
HETATM    5  C   LIG     1      17.027  37.467  22.783  1.00  0.00    -0.046 A 
HETATM    6  C   LIG     1      17.173  38.935  23.035  1.00  0.00     0.044 A 
HETATM    7  C   LIG     1      17.577  39.009  24.538  1.00  0.00     0.044 A 
HETATM    8  C   LIG     1      17.290  36.769  23.917  1.00  0.00    -0.013 A 
HETATM    9  C   LIG     1      17.612  37.574  24.963  1.00  0.00    -0.046 A 
HETATM   10  C   LIG     1      17.914  37.015  26.208  1.00  0.00     0.008 A 
HETATM   11  C   LIG     1      17.873  35.610  26.343  1.00  0.00     0.001 A 
HETATM   12  C   LIG     1      17.535  34.789  25.240  1.00  0.00     0.012 A 
ENDROOT
TORSDOF 0
ENDMDL
MODEL 3
REMARK VINA RESULT:      -7.6      2.105      3.995
REMARK  0 active torsions:
REMARK  status: ('A' for Active; 'I' for Inactive)
ROOT
HETATM    1  C   LIG     1      18.258  38.518  21.540  1.00  0.00    -0.025 A 
HETATM    2  C   LIG     1      18.003  39.310  22.675  1.00  0.00     0.012 A 
HETATM    3  C   LIG     1      17.070  38.867  23.641  1.00  0.00     0.001 A 
HETATM    4  C   LIG     1      16.392  37.637  23.476  1.00  0.00     0.008 A 
HETATM    5  C   LIG     1      16.668  36.872  22.339  1.00  0.00    -0.046 A 
HETATM    6  C   LIG     1      16.107  35.551  21.913  1.00  0.00     0.044 A 
HETATM    7  C   LIG     1      16.832  35.266  20.563  1.00  0.00     0.044 A 
HETATM    8  C   LIG     1      17.567  37.317  21.424  1.00  0.00    -0.013 A 
HETATM    9  C   LIG     1      17.717  36.459  20.381  1.00  0.00    -0.046 A 
HETATM   10  C   LIG     1      18.609  36.765  19.348  1.00  0.00     0.008 A 
HETATM   11  C   LIG     1      19.334  37.974  19.421  1.00  0.00     0.001 A 
HETATM   12  C   LIG     1      19.162  38.853  20.516  1.00  0.00     0.012 A 
ENDROOT
TORSDOF 0
ENDMDL
MODEL 4
REMARK VINA RESULT:      -7.6      2.169      4.818
REMARK  0 active torsions:
REMARK  status: ('A' for Active; 'I' for Inactive)
ROOT
HETATM    1  C   LIG     1      18.281  38.529  21.557  1.00  0.00    -0.025 A 
HETATM    2  C   LIG     1      19.228  38.854  20.569  1.00  0.00     0.012 A 
HETATM    3  C   LIG     1      19.413  37.985  19.467  1.00  0.00     0.001 A 
HETATM    4  C   LIG     1      18.655  36.798  19.352  1.00  0.00     0.008 A 
HETATM    5  C   LIG     1      17.721  36.504  20.350  1.00  0.00    -0.046 A 
HETATM    6  C   LIG     1      16.796  35.335  20.483  1.00  0.00     0.044 A 
HETATM    7  C   LIG     1      16.034  35.623  21.812  1.00  0.00     0.044 A 
HETATM    8  C   LIG     1      17.560  37.351  21.399  1.00  0.00    -0.013 A 
HETATM    9  C   LIG     1      16.618  36.920  22.277  1.00  0.00    -0.046 A 
HETATM   10  C   LIG     1      16.326  37.678  23.416  1.00  0.00     0.008 A 
HETATM   11  C   LIG     1      17.032  38.883  23.622  1.00  0.00     0.001 A 
HETATM   12  C   LIG     1      18.010  39.313  22.694  1.00  0.00     0.012 A 
ENDROOT
TORSDOF 0
ENDMDL
MODEL 5
REMARK VINA RESULT:      -7.6      2.443      3.736
REMARK  0 active torsions:
REMARK  status: ('A' for Active; 'I' for Inactive)
ROOT
HETATM    1  C   LIG     1      17.943  36.673  20.370  1.00  0.00    -0.025 A 
HETATM    2  C   LIG     1      17.050  35.594  20.503  1.00  0.00     0.012 A 
HETATM    3  C   LIG     1      16.083  35.611  21.535  1.00  0.00     0.001 A 
HETATM    4  C   LIG     1      16.005  36.702  22.431  1.00  0.00     0.008 A 
HETATM    5  C   LIG     1      16.906  37.760  22.271  1.00  0.00    -0.046 A 
HETATM    6  C   LIG     1      17.051  39.023  23.062  1.00  0.00     0.044 A 
HETATM    7  C   LIG     1      18.234  39.756  22.362  1.00  0.00     0.044 A 
HETATM    8  C   LIG     1      17.827  37.723  21.275  1.00  0.00    -0.013 A 
HETATM    9  C   LIG     1      18.623  38.823  21.258  1.00  0.00    -0.046 A 
HETATM   10  C   LIG     1      19.626  38.946  20.292  1.00  0.00     0.008 A 
HETATM   11  C   LIG     1      19.784  37.905  19.350  1.00  0.00     0.001 A 
HETATM   12  C   LIG     1      18.943  36.767  19.385  1.00  0.00     0.012 A 
ENDROOT
TORSDOF 0
ENDMDL
MODEL 6
REMARK VINA RESULT:      -7.6      2.428      3.975
REMARK  0 active torsions:
REMARK  status: ('A' for Active; 'I' for Inactive)
ROOT
HETATM    1  C   LIG     1      17.865  36.638  20.381  1.00  0.00    -0.025 A 
HETATM    2  C   LIG     1      18.865  36.745  19.398  1.00  0.00     0.012 A 
HETATM    3  C   LIG     1      19.708  37.881  19.379  1.00  0.00     0.001 A 
HETATM    4  C   LIG     1      19.554  38.907  20.338  1.00  0.00     0.008 A 
HETATM    5  C   LIG     1      18.551  38.772  21.303  1.00  0.00    -0.046 A 
HETATM    6  C   LIG     1      18.168  39.689  22.422  1.00  0.00     0.044 A 
HETATM    7  C   LIG     1      16.983  38.947  23.111  1.00  0.00     0.044 A 
HETATM    8  C   LIG     1      17.753  37.674  21.303  1.00  0.00    -0.013 A 
HETATM    9  C   LIG     1      16.833  37.697  22.302  1.00  0.00    -0.046 A 
HETATM   10  C   LIG     1      15.931  36.639  22.446  1.00  0.00     0.008 A 
HETATM   11  C   LIG     1      16.005  35.563  21.534  1.00  0.00     0.001 A 
HETATM   12  C   LIG     1      16.971  35.559  20.500  1.00  0.00     0.012 A 
ENDROOT
TORSDOF 0
ENDMDL
MODEL 7
REMARK VINA RESULT:      -6.9      8.217     10.721
REMARK  0 active torsions:
REMARK  status: ('A' for Active; 'I' for Inactive)
ROOT
HETATM    1  C   LIG     1      15.640  32.823  16.044  1.00  0.00    -0.025 A 
HETATM    2  C   LIG     1      16.630  33.711  15.586  1.00  0.00     0.012 A 
HETATM    3  C   LIG     1      17.220  33.504  14.316  1.00  0.00     0.001 A 
HETATM    4  C   LIG     1      16.822  32.416  13.507  1.00  0.00     0.008 A 
HETATM    5  C   LIG     1      15.834  31.552  13.990  1.00  0.00    -0.046 A 
HETATM    6  C   LIG     1      15.229  30.338  13.358  1.00  0.00     0.044 A 
HETATM    7  C   LIG     1      14.199  29.849  14.420  1.00  0.00     0.044 A 
HETATM    8  C   LIG     1      15.282  31.769  15.211  1.00  0.00    -0.013 A 
HETATM    9  C   LIG     1      14.342  30.842  15.531  1.00  0.00    -0.046 A 
HETATM   10  C   LIG     1      13.673  30.919  16.756  1.00  0.00     0.008 A 
HETATM   11  C   LIG     1      14.001  31.972  17.637  1.00  0.00     0.001 A 
HETATM   12  C   LIG     1      14.984  32.928  17.284  1.00  0.00     0.012 A 
ENDROOT
TORSDOF 0
ENDMDL
MODEL 8
REMARK VINA RESULT:      -6.9      8.218     10.499
REMARK  0 active torsions:
REMARK  status: ('A' for Active; 'I' for Inactive)
ROOT
HETATM    1  C   LIG     1      15.641  32.822  16.044  1.00  0.00    -0.025 A 
HETATM    2  C   LIG     1      14.986  32.924  17.285  1.00  0.00     0.012 A 
HETATM    3  C   LIG     1      14.003  31.968  17.637  1.00  0.00     0.001 A 
HETATM    4  C   LIG     1      13.675  30.914  16.754  1.00  0.00     0.008 A 
HETATM    5  C   LIG     1      14.344  30.840  15.528  1.00  0.00    -0.046 A 
HETATM    6  C   LIG     1      14.202  29.847  14.417  1.00  0.00     0.044 A 
HETATM    7  C   LIG     1      15.231  30.338  13.356  1.00  0.00     0.044 A 
HETATM    8  C   LIG     1      15.283  31.767  15.211  1.00  0.00    -0.013 A 
HETATM    9  C   LIG     1      15.836  31.552  13.989  1.00  0.00    -0.046 A 
HETATM   10  C   LIG     1      16.824  32.417  13.507  1.00  0.00     0.008 A 
HETATM   11  C   LIG     1      17.221  33.504  14.317  1.00  0.00     0.001 A 
HETATM   12  C   LIG     1      16.632  33.709  15.587  1.00  0.00     0.012 A 
ENDROOT
TORSDOF 0
ENDMDL
MODEL 9
REMARK VINA RESULT:      -6.8      0.626      3.782
REMARK  0 active torsions:
REMARK  status: ('A' for Active; 'I' for Inactive)
ROOT
HETATM    1  C   LIG     1      17.033  37.297  22.207  1.00  0.00    -0.025 A 
HETATM    2  C   LIG     1      16.775  36.530  21.056  1.00  0.00     0.012 A 
HETATM    3  C   LIG     1      16.683  35.122  21.160  1.00  0.00     0.001 A 
HETATM    4  C   LIG     1      16.847  34.481  22.409  1.00  0.00     0.008 A 
HETATM    5  C   LIG     1      17.101  35.270  23.535  1.00  0.00    -0.046 A 
HETATM    6  C   LIG     1      17.314  34.867  24.960  1.00  0.00     0.044 A 
HETATM    7  C   LIG     1      17.545  36.223  25.692  1.00  0.00     0.044 A 
HETATM    8  C   LIG     1      17.186  36.620  23.412  1.00  0.00    -0.013 A 
HETATM    9  C   LIG     1      17.438  37.236  24.596  1.00  0.00    -0.046 A 
HETATM   10  C   LIG     1      17.555  38.628  24.647  1.00  0.00     0.008 A 
HETATM   11  C   LIG     1      17.408  39.361  23.449  1.00  0.00     0.001 A 
HETATM   12  C   LIG     1      17.146  38.698  22.226  1.00  0.00     0.012 A 
ENDROOT
TORSDOF 0
ENDMDL
MODEL 10
REMARK VINA RESULT:      -6.8      8.080     10.480
REMARK  0 active torsions:
REMARK  status: ('A' for Active; 'I' for Inactive)
ROOT
HETATM    1  C   LIG     1      15.614  31.394  14.148  1.00  0.00    -0.025 A 
HETATM    2  C   LIG     1      16.667  32.098  13.535  1.00  0.00     0.012 A 
HETATM    3  C   LIG     1      17.232  33.218  14.188  1.00  0.00     0.001 A 
HETATM    4  C   LIG     1      16.748  33.636  15.448  1.00  0.00     0.008 A 
HETATM    5  C   LIG     1      15.700  32.916  16.032  1.00  0.00    -0.046 A 
HETATM    6  C   LIG     1      15.001  33.130  17.337  1.00  0.00     0.044 A 
HETATM    7  C   LIG     1      13.943  31.986  17.376  1.00  0.00     0.044 A 
HETATM    8  C   LIG     1      15.173  31.844  15.387  1.00  0.00    -0.013 A 
HETATM    9  C   LIG     1      14.167  31.259  16.087  1.00  0.00    -0.046 A 
HETATM   10  C   LIG     1      13.513  30.138  15.566  1.00  0.00     0.008 A 
HETATM   11  C   LIG     1      13.925  29.643  14.309  1.00  0.00     0.001 A 
HETATM   12  C   LIG     1      14.976  30.269  13.597  1.00  0.00     0.012 A 
ENDROOT
TORSDOF 0
ENDMDL
MODEL 11
REMARK VINA RESULT:      -6.8      8.080     10.568
REMARK  0 active torsions:
REMARK  status: ('A' for Active; 'I' for Inactive)
ROOT
HETATM    1  C   LIG     1      15.614  31.394  14.148  1.00  0.00    -0.025 A 
HETATM    2  C   LIG     1      14.974  30.268  13.597  1.00  0.00     0.012 A 
HETATM    3  C   LIG     1      13.924  29.643  14.309  1.00  0.00     0.001 A 
HETATM    4  C   LIG     1      13.512  30.139  15.567  1.00  0.00     0.008 A 
HETATM    5  C   LIG     1      14.166  31.259  16.088  1.00  0.00    -0.046 A 
HETATM    6  C   LIG     1      13.943  31.987  17.377  1.00  0.00     0.044 A 
HETATM    7  C   LIG     1      15.001  33.130  17.338  1.00  0.00     0.044 A 
HETATM    8  C   LIG     1      15.173  31.844  15.388  1.00  0.00    -0.013 A 
HETATM    9  C   LIG     1      15.701  32.916  16.032  1.00  0.00    -0.046 A 
HETATM   10  C   LIG     1      16.748  33.636  15.448  1.00  0.00     0.008 A 
HETATM   11  C   LIG     1      17.232  33.218  14.188  1.00  0.00     0.001 A 
HETATM   12  C   LIG     1      16.666  32.097  13.535  1.00  0.00     0.012 A 
ENDROOT
TORSDOF 0
ENDMDL
MODEL 12
REMARK VINA RESULT:      -6.8      0.602      2.977
REMARK  0 active torsions:
REMARK  status: ('A' for Active; 'I' for Inactive)
ROOT
HETATM    1  C   LIG     1      16.959  37.345  22.317  1.00  0.00    -0.025 A 
HETATM    2  C   LIG     1      17.025  38.748  22.394  1.00  0.00     0.012 A 
HETATM    3  C   LIG     1      17.272  39.368  23.641  1.00  0.00     0.001 A 
HETATM    4  C   LIG     1      17.453  38.592  24.808  1.00  0.00     0.008 A 
HETATM    5  C   LIG     1      17.383  37.199  24.699  1.00  0.00    -0.046 A 
HETATM    6  C   LIG     1      17.532  36.147  25.752  1.00  0.00     0.044 A 
HETATM    7  C   LIG     1      17.342  34.815  24.966  1.00  0.00     0.044 A 
HETATM    8  C   LIG     1      17.144  36.625  23.492  1.00  0.00    -0.013 A 
HETATM    9  C   LIG     1      17.106  35.269  23.559  1.00  0.00    -0.046 A 
HETATM   10  C   LIG     1      16.872  34.518  22.403  1.00  0.00     0.008 A 
HETATM   11  C   LIG     1      16.678  35.204  21.183  1.00  0.00     0.001 A 
HETATM   12  C   LIG     1      16.722  36.618  21.137  1.00  0.00     0.012 A 
ENDROOT
TORSDOF 0
ENDMDL
MODEL 13
REMARK VINA RESULT:      -6.6      7.999     10.170
REMARK  0 active torsions:
REMARK  status: ('A' for Active; 'I' for Inactive)
ROOT
HETATM    1  C   LIG     1      14.264  31.009  15.903  1.00  0.00    -0.025 A 
HETATM    2  C   LIG     1      13.798  31.344  17.188  1.00  0.00     0.012 A 
HETATM    3  C   LIG     1      14.350  32.457  17.864  1.00  0.00     0.001 A 
HETATM    4  C   LIG     1      15.364  33.235  17.260  1.00  0.00     0.008 A 
HETATM    5  C   LIG     1      15.805  32.878  15.982  1.00  0.00    -0.046 A 
HETATM    6  C   LIG     1      16.850  33.512  15.117  1.00  0.00     0.044 A 
HETATM    7  C   LIG     1      16.846  32.627  13.834  1.00  0.00     0.044 A 
HETATM    8  C   LIG     1      15.262  31.805  15.352  1.00  0.00    -0.013 A 
HETATM    9  C   LIG     1      15.801  31.595  14.123  1.00  0.00    -0.046 A 
HETATM   10  C   LIG     1      15.353  30.529  13.337  1.00  0.00     0.008 A 
HETATM   11  C   LIG     1      14.340  29.691  13.853  1.00  0.00     0.001 A 
HETATM   12  C   LIG     1      13.792  29.929  15.136  1.00  0.00     0.012 A 
ENDROOT
TORSDOF 0
ENDMDL
MODEL 14
REMARK VINA RESULT:      -6.6      8.015     10.576
REMARK  0 active torsions:
REMARK  status: ('A' for Active; 'I' for Inactive)
ROOT
HETATM    1  C   LIG     1      14.271  30.996  15.885  1.00  0.00    -0.025 A 
HETATM    2  C   LIG     1      13.815  29.911  15.114  1.00  0.00     0.012 A 
HETATM    3  C   LIG     1      14.372  29.682  13.833  1.00  0.00     0.001 A 
HETATM    4  C   LIG     1      15.380  30.531  13.324  1.00  0.00     0.008 A 
HETATM    5  C   LIG     1      15.813  31.600  14.115  1.00  0.00    -0.046 A 
HETATM    6  C   LIG     1      16.848  32.643  13.834  1.00  0.00     0.044 A 
HETATM    7  C   LIG     1      16.836  33.525  15.118  1.00  0.00     0.044 A 
HETATM    8  C   LIG     1      15.265  31.802  15.341  1.00  0.00    -0.013 A 
HETATM    9  C   LIG     1      15.793  32.879  15.977  1.00  0.00    -0.046 A 
HETATM   10  C   LIG     1      15.341  33.229  17.253  1.00  0.00     0.008 A 
HETATM   11  C   LIG     1      14.333  32.440  17.849  1.00  0.00     0.001 A 
HETATM   12  C   LIG     1      13.796  31.321  17.168  1.00  0.00     0.012 A 
ENDROOT
TORSDOF 0
ENDMDL
MODEL 15
REMARK VINA RESULT:      -5.8      8.077     10.242
REMARK  0 active torsions:
REMARK  status: ('A' for Active; 'I' for Inactive)
ROOT
HETATM    1  C   LIG     1      14.402  30.749  14.882  1.00  0.00    -0.025 A 
HETATM    2  C   LIG     1      13.322  30.125  15.533  1.00  0.00     0.012 A 
HETATM    3  C   LIG     1      12.840  30.657  16.753  1.00  0.00     0.001 A 
HETATM    4  C   LIG     1      13.433  31.807  17.320  1.00  0.00     0.008 A 
HETATM    5  C   LIG     1      14.504  32.405  16.648  1.00  0.00    -0.046 A 
HETATM    6  C   LIG     1      15.310  33.613  17.012  1.00  0.00     0.044 A 
HETATM    7  C   LIG     1      16.337  33.730  15.846  1.00  0.00     0.044 A 
HETATM    8  C   LIG     1      14.951  31.878  15.480  1.00  0.00    -0.013 A 
HETATM    9  C   LIG     1      15.993  32.575  14.958  1.00  0.00    -0.046 A 
HETATM   10  C   LIG     1      16.574  32.167  13.753  1.00  0.00     0.008 A 
HETATM   11  C   LIG     1      16.052  31.025  13.107  1.00  0.00     0.001 A 
HETATM   12  C   LIG     1      14.964  30.313  13.668  1.00  0.00     0.012 A 
ENDROOT
TORSDOF 0
ENDMDL
