REMARK  0 active torsions:
REMARK  status: ('A' for Active; 'I' for Inactive)
ROOT
HETATM    1  C   LIG     1       2.597  -0.767  -0.167  1.00  0.00     0.050 C 
HETATM    2  C   LIG     1       1.413   0.140  -0.093  1.00  0.00    -0.034 A 
HETATM    3  C   LIG     1       1.423   1.532  -0.100  1.00  0.00     0.096 A 
HETATM    4  N   LIG     1       0.161   2.012  -0.019  1.00  0.00    -0.365 N 
HETATM    5  C   LIG     1      -0.644   0.936   0.038  1.00  0.00     0.042 A 
HETATM    6  C   LIG     1       0.085  -0.225  -0.005  1.00  0.00    -0.002 A 
HETATM    7  C   LIG     1      -0.524  -1.479   0.041  1.00  0.00     0.014 A 
HETATM    8  C   LIG     1      -1.927  -1.523   0.133  1.00  0.00     0.001 A 
HETATM    9  C   LIG     1      -2.679  -0.327   0.177  1.00  0.00     0.002 A 
HETATM   10  C   LIG     1      -2.035   0.923   0.130  1.00  0.00     0.030 A 
HETATM   11  H   LIG     1      -0.127   3.016  -0.004  1.00  0.00     0.165 HD
ENDROOT
TORSDOF 0
