MODEL 1
REMARK VINA RESULT:      -7.4      0.000      0.000
REMARK  0 active torsions:
REMARK  status: ('A' for Active; 'I' for Inactive)
ROOT
HETATM    1  C   LIG     1      16.310  35.236  21.920  1.00  0.00     0.050 C 
HETATM    2  C   LIG     1      16.635  36.259  22.959  1.00  0.00    -0.034 A 
HETATM    3  C   LIG     1      16.467  37.637  22.858  1.00  0.00     0.096 A 
HETATM    4  N   LIG     1      16.871  38.245  23.997  1.00  0.00    -0.365 N 
HETATM    5  C   LIG     1      17.290  37.263  24.815  1.00  0.00     0.042 A 
HETATM    6  C   LIG     1      17.161  36.036  24.215  1.00  0.00    -0.002 A 
HETATM    7  C   LIG     1      17.531  34.857  24.862  1.00  0.00     0.014 A 
HETATM    8  C   LIG     1      18.048  34.960  26.167  1.00  0.00     0.001 A 
HETATM    9  C   LIG     1      18.181  36.224  26.785  1.00  0.00     0.002 A 
HETATM   10  C   LIG     1      17.800  37.395  26.106  1.00  0.00     0.030 A 
HETATM   11  H   LIG     1      16.858  39.270  24.198  1.00  0.00     0.165 HD
ENDROOT
TORSDOF 0
ENDMDL
MODEL 2
REMARK VINA RESULT:      -7.2      0.860      3.302
REMARK  0 active torsions:
REMARK  status: ('A' for Active; 'I' for Inactive)
ROOT
HETATM    1  C   LIG     1      18.319  35.694  26.544  1.00  0.00     0.050 C 
HETATM    2  C   LIG     1      17.682  36.624  25.565  1.00  0.00    -0.034 A 
HETATM    3  C   LIG     1      17.452  37.987  25.732  1.00  0.00     0.096 A 
HETATM    4  N   LIG     1      16.855  38.502  24.632  1.00  0.00    -0.365 N 
HETATM    5  C   LIG     1      16.709  37.477  23.774  1.00  0.00     0.042 A 
HETATM    6  C   LIG     1      17.203  36.314  24.308  1.00  0.00    -0.002 A 
HETATM    7  C   LIG     1      17.166  35.108  23.609  1.00  0.00     0.014 A 
HETATM    8  C   LIG     1      16.601  35.115  22.320  1.00  0.00     0.001 A 
HETATM    9  C   LIG     1      16.093  36.313  21.769  1.00  0.00     0.002 A 
HETATM   10  C   LIG     1      16.144  37.514  22.500  1.00  0.00     0.030 A 
HETATM   11  H   LIG     1      16.568  39.495  24.483  1.00  0.00     0.165 HD
ENDROOT
TORSDOF 0
ENDMDL
MODEL 3
REMARK VINA RESULT:      -7.1      1.212      2.283
REMARK  0 active torsions:
REMARK  status: ('A' for Active; 'I' for Inactive)
ROOT
HETATM    1  C   LIG     1      16.820  38.942  22.616  1.00  0.00     0.050 C 
HETATM    2  C   LIG     1      16.892  37.506  23.017  1.00  0.00    -0.034 A 
HETATM    3  C   LIG     1      16.544  36.402  22.244  1.00  0.00     0.096 A 
HETATM    4  N   LIG     1      16.741  35.259  22.940  1.00  0.00    -0.365 N 
HETATM    5  C   LIG     1      17.211  35.632  24.144  1.00  0.00     0.042 A 
HETATM    6  C   LIG     1      17.316  36.997  24.228  1.00  0.00    -0.002 A 
HETATM    7  C   LIG     1      17.780  37.630  25.381  1.00  0.00     0.014 A 
HETATM    8  C   LIG     1      18.143  36.820  26.473  1.00  0.00     0.001 A 
HETATM    9  C   LIG     1      18.035  35.414  26.387  1.00  0.00     0.002 A 
HETATM   10  C   LIG     1      17.562  34.805  25.210  1.00  0.00     0.030 A 
HETATM   11  H   LIG     1      16.564  34.285  22.607  1.00  0.00     0.165 HD
ENDROOT
TORSDOF 0
ENDMDL
MODEL 4
REMARK VINA RESULT:      -6.8      2.755      4.397
REMARK  0 active torsions:
REMARK  status: ('A' for Active; 'I' for Inactive)
ROOT
HETATM    1  C   LIG     1      16.324  35.140  21.957  1.00  0.00     0.050 C 
HETATM    2  C   LIG     1      16.769  36.565  22.004  1.00  0.00    -0.034 A 
HETATM    3  C   LIG     1      16.334  37.549  22.887  1.00  0.00     0.096 A 
HETATM    4  N   LIG     1      16.959  38.721  22.630  1.00  0.00    -0.365 N 
HETATM    5  C   LIG     1      17.784  38.484  21.594  1.00  0.00     0.042 A 
HETATM    6  C   LIG     1      17.695  37.178  21.185  1.00  0.00    -0.002 A 
HETATM    7  C   LIG     1      18.455  36.686  20.123  1.00  0.00     0.014 A 
HETATM    8  C   LIG     1      19.328  37.578  19.474  1.00  0.00     0.001 A 
HETATM    9  C   LIG     1      19.420  38.924  19.895  1.00  0.00     0.002 A 
HETATM   10  C   LIG     1      18.639  39.390  20.969  1.00  0.00     0.030 A 
HETATM   11  H   LIG     1      16.825  39.625  23.136  1.00  0.00     0.165 HD
ENDROOT
TORSDOF 0
ENDMDL
MODEL 5
REMARK VINA RESULT:      -6.8      3.112      5.041
REMARK  0 active torsions:
REMARK  status: ('A' for Active; 'I' for Inactive)
ROOT
HETATM    1  C   LIG     1      16.142  37.792  23.340  1.00  0.00     0.050 C 
HETATM    2  C   LIG     1      16.789  37.178  22.143  1.00  0.00    -0.034 A 
HETATM    3  C   LIG     1      16.513  35.932  21.588  1.00  0.00     0.096 A 
HETATM    4  N   LIG     1      17.297  35.713  20.508  1.00  0.00    -0.365 N 
HETATM    5  C   LIG     1      18.064  36.809  20.376  1.00  0.00     0.042 A 
HETATM    6  C   LIG     1      17.782  37.726  21.357  1.00  0.00    -0.002 A 
HETATM    7  C   LIG     1      18.449  38.949  21.435  1.00  0.00     0.014 A 
HETATM    8  C   LIG     1      19.432  39.222  20.467  1.00  0.00     0.001 A 
HETATM    9  C   LIG     1      19.723  38.278  19.456  1.00  0.00     0.002 A 
HETATM   10  C   LIG     1      19.034  37.053  19.405  1.00  0.00     0.030 A 
HETATM   11  H   LIG     1      17.303  34.862  19.901  1.00  0.00     0.165 HD
ENDROOT
TORSDOF 0
ENDMDL
MODEL 6
REMARK VINA RESULT:      -6.6      3.200      4.671
REMARK  0 active torsions:
REMARK  status: ('A' for Active; 'I' for Inactive)
ROOT
HETATM    1  C   LIG     1      20.204  38.976  19.485  1.00  0.00     0.050 C 
HETATM    2  C   LIG     1      19.166  38.007  19.947  1.00  0.00    -0.034 A 
HETATM    3  C   LIG     1      18.874  36.765  19.393  1.00  0.00     0.096 A 
HETATM    4  N   LIG     1      17.872  36.167  20.078  1.00  0.00    -0.365 N 
HETATM    5  C   LIG     1      17.531  37.021  21.059  1.00  0.00     0.042 A 
HETATM    6  C   LIG     1      18.300  38.156  21.011  1.00  0.00    -0.002 A 
HETATM    7  C   LIG     1      18.136  39.196  21.927  1.00  0.00     0.014 A 
HETATM    8  C   LIG     1      17.147  39.048  22.916  1.00  0.00     0.001 A 
HETATM    9  C   LIG     1      16.354  37.879  22.966  1.00  0.00     0.002 A 
HETATM   10  C   LIG     1      16.543  36.848  22.027  1.00  0.00     0.030 A 
HETATM   11  H   LIG     1      17.451  35.232  19.882  1.00  0.00     0.165 HD
ENDROOT
TORSDOF 0
ENDMDL
MODEL 7
REMARK VINA RESULT:      -6.4      2.694      3.717
REMARK  0 active torsions:
REMARK  status: ('A' for Active; 'I' for Inactive)
ROOT
HETATM    1  C   LIG     1      19.009  37.136  19.025  1.00  0.00     0.050 C 
HETATM    2  C   LIG     1      18.739  37.985  20.223  1.00  0.00    -0.034 A 
HETATM    3  C   LIG     1      19.259  39.248  20.489  1.00  0.00     0.096 A 
HETATM    4  N   LIG     1      18.791  39.711  21.670  1.00  0.00    -0.365 N 
HETATM    5  C   LIG     1      17.979  38.753  22.151  1.00  0.00     0.042 A 
HETATM    6  C   LIG     1      17.922  37.683  21.294  1.00  0.00    -0.002 A 
HETATM    7  C   LIG     1      17.146  36.558  21.572  1.00  0.00     0.014 A 
HETATM    8  C   LIG     1      16.411  36.549  22.771  1.00  0.00     0.001 A 
HETATM    9  C   LIG     1      16.469  37.651  23.654  1.00  0.00     0.002 A 
HETATM   10  C   LIG     1      17.263  38.771  23.347  1.00  0.00     0.030 A 
HETATM   11  H   LIG     1      19.016  40.629  22.117  1.00  0.00     0.165 HD
ENDROOT
TORSDOF 0
ENDMDL
MODEL 8
REMARK VINA RESULT:      -6.1      2.300      3.868
REMARK  0 active torsions:
REMARK  status: ('A' for Active; 'I' for Inactive)
ROOT
HETATM    1  C   LIG     1      19.014  39.131  19.612  1.00  0.00     0.050 C 
HETATM    2  C   LIG     1      18.425  38.704  20.916  1.00  0.00    -0.034 A 
HETATM    3  C   LIG     1      18.339  39.458  22.083  1.00  0.00     0.096 A 
HETATM    4  N   LIG     1      17.744  38.742  23.063  1.00  0.00    -0.365 N 
HETATM    5  C   LIG     1      17.453  37.544  22.525  1.00  0.00     0.042 A 
HETATM    6  C   LIG     1      17.855  37.484  21.215  1.00  0.00    -0.002 A 
HETATM    7  C   LIG     1      17.665  36.341  20.439  1.00  0.00     0.014 A 
HETATM    8  C   LIG     1      17.040  35.235  21.043  1.00  0.00     0.001 A 
HETATM    9  C   LIG     1      16.626  35.296  22.393  1.00  0.00     0.002 A 
HETATM   10  C   LIG     1      16.833  36.463  23.150  1.00  0.00     0.030 A 
HETATM   11  H   LIG     1      17.550  39.058  24.040  1.00  0.00     0.165 HD
ENDROOT
TORSDOF 0
ENDMDL
MODEL 9
REMARK VINA RESULT:      -5.6      8.505     11.016
REMARK  0 active torsions:
REMARK  status: ('A' for Active; 'I' for Inactive)
ROOT
HETATM    1  C   LIG     1      15.269  34.022  17.139  1.00  0.00     0.050 C 
HETATM    2  C   LIG     1      14.694  32.700  16.751  1.00  0.00    -0.034 A 
HETATM    3  C   LIG     1      13.763  31.950  17.464  1.00  0.00     0.096 A 
HETATM    4  N   LIG     1      13.475  30.805  16.803  1.00  0.00    -0.365 N 
HETATM    5  C   LIG     1      14.215  30.827  15.680  1.00  0.00     0.042 A 
HETATM    6  C   LIG     1      14.972  31.969  15.614  1.00  0.00    -0.002 A 
HETATM    7  C   LIG     1      15.827  32.224  14.541  1.00  0.00     0.014 A 
HETATM    8  C   LIG     1      15.893  31.266  13.514  1.00  0.00     0.001 A 
HETATM    9  C   LIG     1      15.113  30.089  13.582  1.00  0.00     0.002 A 
HETATM   10  C   LIG     1      14.261  29.860  14.677  1.00  0.00     0.030 A 
HETATM   11  H   LIG     1      12.812  30.058  17.107  1.00  0.00     0.165 HD
ENDROOT
TORSDOF 0
ENDMDL
MODEL 10
REMARK VINA RESULT:      -5.6      9.332     11.206
REMARK  0 active torsions:
REMARK  status: ('A' for Active; 'I' for Inactive)
ROOT
HETATM    1  C   LIG     1      15.455  29.308  13.292  1.00  0.00     0.050 C 
HETATM    2  C   LIG     1      14.466  29.813  14.291  1.00  0.00    -0.034 A 
HETATM    3  C   LIG     1      13.197  29.301  14.545  1.00  0.00     0.096 A 
HETATM    4  N   LIG     1      12.587  30.015  15.519  1.00  0.00    -0.365 N 
HETATM    5  C   LIG     1      13.461  30.971  15.882  1.00  0.00     0.042 A 
HETATM    6  C   LIG     1      14.620  30.879  15.154  1.00  0.00    -0.002 A 
HETATM    7  C   LIG     1      15.682  31.762  15.345  1.00  0.00     0.014 A 
HETATM    8  C   LIG     1      15.532  32.765  16.320  1.00  0.00     0.001 A 
HETATM    9  C   LIG     1      14.338  32.861  17.071  1.00  0.00     0.002 A 
HETATM   10  C   LIG     1      13.284  31.955  16.853  1.00  0.00     0.030 A 
HETATM   11  H   LIG     1      11.631  29.854  15.908  1.00  0.00     0.165 HD
ENDROOT
TORSDOF 0
ENDMDL
MODEL 11
REMARK VINA RESULT:      -5.5      8.516     11.055
REMARK  0 active torsions:
REMARK  status: ('A' for Active; 'I' for Inactive)
ROOT
HETATM    1  C   LIG     1      15.131  33.795  17.321  1.00  0.00     0.050 C 
HETATM    2  C   LIG     1      15.517  32.967  16.139  1.00  0.00    -0.034 A 
HETATM    3  C   LIG     1      16.607  33.166  15.297  1.00  0.00     0.096 A 
HETATM    4  N   LIG     1      16.638  32.217  14.334  1.00  0.00    -0.365 N 
HETATM    5  C   LIG     1      15.578  31.420  14.562  1.00  0.00     0.042 A 
HETATM    6  C   LIG     1      14.870  31.847  15.656  1.00  0.00    -0.002 A 
HETATM    7  C   LIG     1      13.724  31.185  16.096  1.00  0.00     0.014 A 
HETATM    8  C   LIG     1      13.307  30.050  15.378  1.00  0.00     0.001 A 
HETATM    9  C   LIG     1      14.037  29.609  14.250  1.00  0.00     0.002 A 
HETATM   10  C   LIG     1      15.188  30.299  13.831  1.00  0.00     0.030 A 
HETATM   11  H   LIG     1      17.344  32.123  13.570  1.00  0.00     0.165 HD
ENDROOT
TORSDOF 0
ENDMDL
MODEL 12
REMARK VINA RESULT:      -5.4      8.811     10.504
REMARK  0 active torsions:
REMARK  status: ('A' for Active; 'I' for Inactive)
ROOT
HETATM    1  C   LIG     1      13.069  30.389  16.215  1.00  0.00     0.050 C 
HETATM    2  C   LIG     1      14.154  31.406  16.347  1.00  0.00    -0.034 A 
HETATM    3  C   LIG     1      14.443  32.181  17.467  1.00  0.00     0.096 A 
HETATM    4  N   LIG     1      15.496  32.993  17.218  1.00  0.00    -0.365 N 
HETATM    5  C   LIG     1      15.873  32.737  15.952  1.00  0.00     0.042 A 
HETATM    6  C   LIG     1      15.076  31.773  15.389  1.00  0.00    -0.002 A 
HETATM    7  C   LIG     1      15.267  31.334  14.079  1.00  0.00     0.014 A 
HETATM    8  C   LIG     1      16.314  31.913  13.339  1.00  0.00     0.001 A 
HETATM    9  C   LIG     1      17.136  32.906  13.920  1.00  0.00     0.002 A 
HETATM   10  C   LIG     1      16.917  33.329  15.243  1.00  0.00     0.030 A 
HETATM   11  H   LIG     1      15.927  33.680  17.877  1.00  0.00     0.165 HD
ENDROOT
TORSDOF 0
ENDMDL
MODEL 13
REMARK VINA RESULT:      -5.0     12.881     13.842
REMARK  0 active torsions:
REMARK  status: ('A' for Active; 'I' for Inactive)
ROOT
HETATM    1  C   LIG     1      20.365  33.494  12.616  1.00  0.00     0.050 C 
HETATM    2  C   LIG     1      21.078  34.502  11.776  1.00  0.00    -0.034 A 
HETATM    3  C   LIG     1      20.783  34.856  10.463  1.00  0.00     0.096 A 
HETATM    4  N   LIG     1      21.643  35.804  10.027  1.00  0.00    -0.365 N 
HETATM    5  C   LIG     1      22.476  36.052  11.053  1.00  0.00     0.042 A 
HETATM    6  C   LIG     1      22.162  35.275  12.139  1.00  0.00    -0.002 A 
HETATM    7  C   LIG     1      22.884  35.348  13.330  1.00  0.00     0.014 A 
HETATM    8  C   LIG     1      23.958  36.253  13.391  1.00  0.00     0.001 A 
HETATM    9  C   LIG     1      24.283  37.054  12.272  1.00  0.00     0.002 A 
HETATM   10  C   LIG     1      23.536  36.957  11.084  1.00  0.00     0.030 A 
HETATM   11  H   LIG     1      21.655  36.252   9.083  1.00  0.00     0.165 HD
ENDROOT
TORSDOF 0
ENDMDL
MODEL 14
REMARK VINA RESULT:      -5.0     11.305     13.071
REMARK  0 active torsions:
REMARK  status: ('A' for Active; 'I' for Inactive)
ROOT
HETATM    1  C   LIG     1      15.849  27.336  12.695  1.00  0.00     0.050 C 
HETATM    2  C   LIG     1      14.666  27.948  13.369  1.00  0.00    -0.034 A 
HETATM    3  C   LIG     1      13.367  27.449  13.397  1.00  0.00     0.096 A 
HETATM    4  N   LIG     1      12.561  28.274  14.104  1.00  0.00    -0.365 N 
HETATM    5  C   LIG     1      13.340  29.288  14.522  1.00  0.00     0.042 A 
HETATM    6  C   LIG     1      14.632  29.123  14.093  1.00  0.00    -0.002 A 
HETATM    7  C   LIG     1      15.632  30.046  14.398  1.00  0.00     0.014 A 
HETATM    8  C   LIG     1      15.277  31.166  15.170  1.00  0.00     0.001 A 
HETATM    9  C   LIG     1      13.946  31.336  15.614  1.00  0.00     0.002 A 
HETATM   10  C   LIG     1      12.958  30.388  15.288  1.00  0.00     0.030 A 
HETATM   11  H   LIG     1      11.540  28.147  14.287  1.00  0.00     0.165 HD
ENDROOT
TORSDOF 0
ENDMDL
MODEL 15
REMARK VINA RESULT:      -4.7      5.880      7.573
REMARK  0 active torsions:
REMARK  status: ('A' for Active; 'I' for Inactive)
ROOT
HETATM    1  C   LIG     1      14.570  31.231  15.792  1.00  0.00     0.050 C 
HETATM    2  C   LIG     1      14.981  32.411  16.609  1.00  0.00    -0.034 A 
HETATM    3  C   LIG     1      15.450  33.634  16.137  1.00  0.00     0.096 A 
HETATM    4  N   LIG     1      15.724  34.463  17.169  1.00  0.00    -0.365 N 
HETATM    5  C   LIG     1      15.432  33.775  18.288  1.00  0.00     0.042 A 
HETATM    6  C   LIG     1      14.975  32.518  17.985  1.00  0.00    -0.002 A 
HETATM    7  C   LIG     1      14.607  31.610  18.977  1.00  0.00     0.014 A 
HETATM    8  C   LIG     1      14.716  32.024  20.317  1.00  0.00     0.001 A 
HETATM    9  C   LIG     1      15.187  33.319  20.630  1.00  0.00     0.002 A 
HETATM   10  C   LIG     1      15.552  34.212  19.606  1.00  0.00     0.030 A 
HETATM   11  H   LIG     1      16.089  35.440  17.107  1.00  0.00     0.165 HD
ENDROOT
TORSDOF 0
ENDMDL
