REMARK  0 active torsions:
REMARK  status: ('A' for Active; 'I' for Inactive)
ROOT
HETATM    1  C   LIG     1       1.409   0.145   0.062  1.00  0.00    -0.025 A 
HETATM    2  C   LIG     1       1.927   1.448   0.178  1.00  0.00     0.012 A 
HETATM    3  C   LIG     1       1.041   2.550   0.227  1.00  0.00     0.001 A 
HETATM    4  C   LIG     1      -0.357   2.353   0.161  1.00  0.00     0.008 A 
HETATM    5  C   LIG     1      -0.841   1.046   0.047  1.00  0.00    -0.046 A 
HETATM    6  C   LIG     1      -2.250   0.550  -0.042  1.00  0.00     0.044 A 
HETATM    7  C   LIG     1      -2.086  -0.996  -0.150  1.00  0.00     0.044 A 
HETATM    8  C   LIG     1       0.027   0.003   0.001  1.00  0.00    -0.013 A 
HETATM    9  C   LIG     1      -0.603  -1.195  -0.111  1.00  0.00    -0.046 A 
HETATM   10  C   LIG     1       0.145  -2.375  -0.170  1.00  0.00     0.008 A 
HETATM   11  C   LIG     1       1.553  -2.283  -0.112  1.00  0.00     0.001 A 
HETATM   12  C   LIG     1       2.189  -1.024   0.005  1.00  0.00     0.012 A 
ENDROOT
TORSDOF 0
