MODEL 1
REMARK VINA RESULT:      -5.1      0.000      0.000
REMARK  5 active torsions:
REMARK  status: ('A' for Active; 'I' for Inactive)
REMARK    1  A    between atoms: C_13  and  O_14 
REMARK    2  A    between atoms: C_21  and  C_23 
REMARK    3  A    between atoms: C_21  and  O_22 
REMARK    4  A    between atoms: C_23  and  C_24 
REMARK    5  A    between atoms: C_24  and  O_25 
ROOT
HETATM    1  O   LIG     1      30.470  23.902  30.431  1.00  0.00    -0.289 OA
HETATM    2  C   LIG     1      29.849  24.868  30.946  1.00  0.00     0.172 C 
HETATM    3  C   LIG     1      28.652  24.631  31.757  1.00  0.00     0.052 C 
HETATM    4  C   LIG     1      27.925  25.662  32.197  1.00  0.00    -0.009 C 
HETATM    5  C   LIG     1      28.170  27.088  31.707  1.00  0.00     0.004 C 
HETATM    6  C   LIG     1      27.270  27.275  30.463  1.00  0.00     0.025 C 
HETATM    7  C   LIG     1      29.643  27.277  31.269  1.00  0.00    -0.060 C 
HETATM    8  C   LIG     1      30.341  28.626  31.443  1.00  0.00     0.012 C 
HETATM    9  C   LIG     1      29.913  29.616  30.351  1.00  0.00     0.015 C 
HETATM   10  C   LIG     1      30.145  29.215  32.872  1.00  0.00     0.014 C 
HETATM   11  C   LIG     1      29.056  28.483  33.691  1.00  0.00    -0.001 C 
HETATM   12  C   LIG     1      27.819  28.174  32.795  1.00  0.00     0.035 C 
HETATM   13  C   LIG     1      26.526  27.964  33.643  1.00  0.00     0.124 C 
HETATM   14  C   LIG     1      26.155  29.261  34.434  1.00  0.00     0.045 C 
HETATM   15  C   LIG     1      27.395  30.082  34.957  1.00  0.00     0.001 C 
HETATM   16  C   LIG     1      27.623  31.309  34.008  1.00  0.00     0.019 C 
HETATM   17  C   LIG     1      28.638  29.174  35.021  1.00  0.00     0.002 C 
HETATM   18  C   LIG     1      29.670  29.929  35.856  1.00  0.00     0.009 C 
HETATM   19  C   LIG     1      28.835  30.794  36.819  1.00  0.00     0.047 C 
HETATM   20  C   LIG     1      27.332  30.610  36.440  1.00  0.00     0.128 C 
HETATM   21  C   LIG     1      30.357  26.235  30.807  1.00  0.00     0.059 C 
ENDROOT
BRANCH  20  22
HETATM   22  C   LIG     1      26.601  29.657  37.406  1.00  0.00     0.184 C 
HETATM   23  O   LIG     1      25.415  29.860  37.631  1.00  0.00    -0.292 OA
BRANCH  22  24
HETATM   24  C   LIG     1      27.244  28.481  38.105  1.00  0.00     0.245 C 
BRANCH  24  25
HETATM   25  O   LIG     1      26.949  27.295  37.418  1.00  0.00    -0.393 OA
HETATM   26  H   LIG     1      27.778  27.026  36.941  1.00  0.00     0.209 HD
ENDBRANCH  24  25
ENDBRANCH  22  24
ENDBRANCH  20  22
BRANCH  20  27
HETATM   27  O   LIG     1      26.680  31.862  36.485  1.00  0.00    -0.381 OA
HETATM   28  H   LIG     1      25.704  31.698  36.384  1.00  0.00     0.211 HD
ENDBRANCH  20  27
BRANCH  13  29
HETATM   29  O   LIG     1      26.700  26.904  34.550  1.00  0.00    -0.395 OA
HETATM   30  H   LIG     1      27.271  27.244  35.287  1.00  0.00     0.210 HD
ENDBRANCH  13  29
TORSDOF 5
ENDMDL
MODEL 2
REMARK VINA RESULT:      -5.0     14.603     17.858
REMARK  5 active torsions:
REMARK  status: ('A' for Active; 'I' for Inactive)
REMARK    1  A    between atoms: C_13  and  O_14 
REMARK    2  A    between atoms: C_21  and  C_23 
REMARK    3  A    between atoms: C_21  and  O_22 
REMARK    4  A    between atoms: C_23  and  C_24 
REMARK    5  A    between atoms: C_24  and  O_25 
ROOT
HETATM    1  O   LIG     1      22.602  18.105  14.879  1.00  0.00    -0.289 OA
HETATM    2  C   LIG     1      23.399  18.682  15.664  1.00  0.00     0.172 C 
HETATM    3  C   LIG     1      24.819  18.795  15.325  1.00  0.00     0.052 C 
HETATM    4  C   LIG     1      25.684  19.295  16.213  1.00  0.00    -0.009 C 
HETATM    5  C   LIG     1      25.284  19.562  17.663  1.00  0.00     0.004 C 
HETATM    6  C   LIG     1      25.590  18.259  18.438  1.00  0.00     0.025 C 
HETATM    7  C   LIG     1      23.766  19.845  17.776  1.00  0.00    -0.060 C 
HETATM    8  C   LIG     1      23.230  20.805  18.838  1.00  0.00     0.012 C 
HETATM    9  C   LIG     1      23.185  20.136  20.218  1.00  0.00     0.015 C 
HETATM   10  C   LIG     1      24.013  22.152  18.869  1.00  0.00     0.014 C 
HETATM   11  C   LIG     1      25.329  22.113  18.059  1.00  0.00    -0.001 C 
HETATM   12  C   LIG     1      26.076  20.767  18.301  1.00  0.00     0.035 C 
HETATM   13  C   LIG     1      27.601  20.884  17.988  1.00  0.00     0.124 C 
HETATM   14  C   LIG     1      28.291  21.921  18.932  1.00  0.00     0.045 C 
HETATM   15  C   LIG     1      27.396  23.166  19.298  1.00  0.00     0.001 C 
HETATM   16  C   LIG     1      26.818  22.965  20.741  1.00  0.00     0.019 C 
HETATM   17  C   LIG     1      26.275  23.333  18.254  1.00  0.00     0.002 C 
HETATM   18  C   LIG     1      25.698  24.729  18.474  1.00  0.00     0.009 C 
HETATM   19  C   LIG     1      26.874  25.555  19.030  1.00  0.00     0.047 C 
HETATM   20  C   LIG     1      28.079  24.584  19.233  1.00  0.00     0.128 C 
HETATM   21  C   LIG     1      22.905  19.317  16.888  1.00  0.00     0.059 C 
ENDROOT
BRANCH  20  22
HETATM   22  C   LIG     1      29.128  24.716  18.111  1.00  0.00     0.184 C 
HETATM   23  O   LIG     1      30.304  24.536  18.395  1.00  0.00    -0.292 OA
BRANCH  22  24
HETATM   24  C   LIG     1      28.810  25.058  16.673  1.00  0.00     0.245 C 
BRANCH  24  25
HETATM   25  O   LIG     1      28.811  23.893  15.892  1.00  0.00    -0.393 OA
HETATM   26  H   LIG     1      28.686  23.129  16.515  1.00  0.00     0.209 HD
ENDBRANCH  24  25
ENDBRANCH  22  24
ENDBRANCH  20  22
BRANCH  20  27
HETATM   27  O   LIG     1      28.715  24.876  20.460  1.00  0.00    -0.381 OA
HETATM   28  H   LIG     1      28.006  25.058  21.133  1.00  0.00     0.211 HD
ENDBRANCH  20  27
BRANCH  13  29
HETATM   29  O   LIG     1      27.799  21.274  16.651  1.00  0.00    -0.395 OA
HETATM   30  H   LIG     1      27.979  22.250  16.658  1.00  0.00     0.210 HD
ENDBRANCH  13  29
TORSDOF 5
ENDMDL
MODEL 3
REMARK VINA RESULT:      -4.8     13.721     15.781
REMARK  5 active torsions:
REMARK  status: ('A' for Active; 'I' for Inactive)
REMARK    1  A    between atoms: C_13  and  O_14 
REMARK    2  A    between atoms: C_21  and  C_23 
REMARK    3  A    between atoms: C_21  and  O_22 
REMARK    4  A    between atoms: C_23  and  C_24 
REMARK    5  A    between atoms: C_24  and  O_25 
ROOT
HETATM    1  O   LIG     1      22.640  18.582  23.199  1.00  0.00    -0.289 OA
HETATM    2  C   LIG     1      23.116  19.564  22.572  1.00  0.00     0.172 C 
HETATM    3  C   LIG     1      23.777  20.653  23.294  1.00  0.00     0.052 C 
HETATM    4  C   LIG     1      24.170  21.750  22.641  1.00  0.00    -0.009 C 
HETATM    5  C   LIG     1      23.764  22.013  21.192  1.00  0.00     0.004 C 
HETATM    6  C   LIG     1      22.435  22.800  21.255  1.00  0.00     0.025 C 
HETATM    7  C   LIG     1      23.503  20.684  20.441  1.00  0.00    -0.060 C 
HETATM    8  C   LIG     1      23.805  20.561  18.947  1.00  0.00     0.012 C 
HETATM    9  C   LIG     1      22.709  21.227  18.104  1.00  0.00     0.015 C 
HETATM   10  C   LIG     1      25.223  21.093  18.583  1.00  0.00     0.014 C 
HETATM   11  C   LIG     1      25.886  21.898  19.725  1.00  0.00    -0.001 C 
HETATM   12  C   LIG     1      24.845  22.842  20.398  1.00  0.00     0.035 C 
HETATM   13  C   LIG     1      25.533  24.035  21.133  1.00  0.00     0.124 C 
HETATM   14  C   LIG     1      26.324  24.934  20.129  1.00  0.00     0.045 C 
HETATM   15  C   LIG     1      27.014  24.144  18.952  1.00  0.00     0.001 C 
HETATM   16  C   LIG     1      26.143  24.308  17.659  1.00  0.00     0.019 C 
HETATM   17  C   LIG     1      27.185  22.664  19.340  1.00  0.00     0.002 C 
HETATM   18  C   LIG     1      28.158  22.070  18.325  1.00  0.00     0.009 C 
HETATM   19  C   LIG     1      29.053  23.252  17.904  1.00  0.00     0.047 C 
HETATM   20  C   LIG     1      28.499  24.536  18.599  1.00  0.00     0.128 C 
HETATM   21  C   LIG     1      23.087  19.593  21.108  1.00  0.00     0.059 C 
ENDROOT
BRANCH  20  22
HETATM   22  C   LIG     1      29.341  24.942  19.825  1.00  0.00     0.184 C 
HETATM   23  O   LIG     1      29.493  26.135  20.052  1.00  0.00    -0.292 OA
BRANCH  22  24
HETATM   24  C   LIG     1      30.000  23.970  20.777  1.00  0.00     0.245 C 
BRANCH  24  25
HETATM   25  O   LIG     1      29.261  23.885  21.965  1.00  0.00    -0.393 OA
HETATM   26  H   LIG     1      29.912  23.935  22.713  1.00  0.00     0.209 HD
ENDBRANCH  24  25
ENDBRANCH  22  24
ENDBRANCH  20  22
BRANCH  20  27
HETATM   27  O   LIG     1      28.516  25.610  17.683  1.00  0.00    -0.381 OA
HETATM   28  H   LIG     1      28.920  26.394  18.143  1.00  0.00     0.211 HD
ENDBRANCH  20  27
BRANCH  13  29
HETATM   29  O   LIG     1      26.414  23.560  22.121  1.00  0.00    -0.395 OA
HETATM   30  H   LIG     1      26.352  22.570  22.113  1.00  0.00     0.210 HD
ENDBRANCH  13  29
TORSDOF 5
ENDMDL
MODEL 4
REMARK VINA RESULT:      -4.6     10.825     15.095
REMARK  5 active torsions:
REMARK  status: ('A' for Active; 'I' for Inactive)
REMARK    1  A    between atoms: C_13  and  O_14 
REMARK    2  A    between atoms: C_21  and  C_23 
REMARK    3  A    between atoms: C_21  and  O_22 
REMARK    4  A    between atoms: C_23  and  C_24 
REMARK    5  A    between atoms: C_24  and  O_25 
ROOT
HETATM    1  O   LIG     1      26.185  25.058  27.124  1.00  0.00    -0.289 OA
HETATM    2  C   LIG     1      26.181  24.323  26.103  1.00  0.00     0.172 C 
HETATM    3  C   LIG     1      25.059  23.416  25.847  1.00  0.00     0.052 C 
HETATM    4  C   LIG     1      25.115  22.549  24.832  1.00  0.00    -0.009 C 
HETATM    5  C   LIG     1      26.404  22.312  24.045  1.00  0.00     0.004 C 
HETATM    6  C   LIG     1      27.144  21.164  24.771  1.00  0.00     0.025 C 
HETATM    7  C   LIG     1      27.310  23.567  24.078  1.00  0.00    -0.060 C 
HETATM    8  C   LIG     1      28.208  23.910  22.888  1.00  0.00     0.012 C 
HETATM    9  C   LIG     1      29.465  23.029  22.871  1.00  0.00     0.015 C 
HETATM   10  C   LIG     1      27.442  23.857  21.533  1.00  0.00     0.014 C 
HETATM   11  C   LIG     1      26.055  23.183  21.640  1.00  0.00    -0.001 C 
HETATM   12  C   LIG     1      26.136  21.916  22.543  1.00  0.00     0.035 C 
HETATM   13  C   LIG     1      24.972  20.918  22.249  1.00  0.00     0.124 C 
HETATM   14  C   LIG     1      25.042  20.388  20.780  1.00  0.00     0.045 C 
HETATM   15  C   LIG     1      25.542  21.451  19.728  1.00  0.00     0.001 C 
HETATM   16  C   LIG     1      27.044  21.157  19.391  1.00  0.00     0.019 C 
HETATM   17  C   LIG     1      25.351  22.874  20.286  1.00  0.00     0.002 C 
HETATM   18  C   LIG     1      25.515  23.820  19.099  1.00  0.00     0.009 C 
HETATM   19  C   LIG     1      25.053  22.999  17.880  1.00  0.00     0.047 C 
HETATM   20  C   LIG     1      24.742  21.551  18.374  1.00  0.00     0.128 C 
HETATM   21  C   LIG     1      27.260  24.420  25.116  1.00  0.00     0.059 C 
ENDROOT
BRANCH  20  22
HETATM   22  C   LIG     1      23.229  21.301  18.528  1.00  0.00     0.184 C 
HETATM   23  O   LIG     1      22.583  22.073  19.224  1.00  0.00    -0.292 OA
BRANCH  22  24
HETATM   24  C   LIG     1      22.474  20.162  17.880  1.00  0.00     0.245 C 
BRANCH  24  25
HETATM   25  O   LIG     1      23.005  18.934  18.301  1.00  0.00    -0.393 OA
HETATM   26  H   LIG     1      22.385  18.574  18.988  1.00  0.00     0.209 HD
ENDBRANCH  24  25
ENDBRANCH  22  24
ENDBRANCH  20  22
BRANCH  20  27
HETATM   27  O   LIG     1      25.245  20.618  17.441  1.00  0.00    -0.381 OA
HETATM   28  H   LIG     1      26.141  20.326  17.758  1.00  0.00     0.211 HD
ENDBRANCH  20  27
BRANCH  13  29
HETATM   29  O   LIG     1      23.728  21.539  22.458  1.00  0.00    -0.395 OA
HETATM   30  H   LIG     1      23.583  21.576  23.439  1.00  0.00     0.210 HD
ENDBRANCH  13  29
TORSDOF 5
ENDMDL
MODEL 5
REMARK VINA RESULT:      -4.5     12.021     16.311
REMARK  5 active torsions:
REMARK  status: ('A' for Active; 'I' for Inactive)
REMARK    1  A    between atoms: C_13  and  O_14 
REMARK    2  A    between atoms: C_21  and  C_23 
REMARK    3  A    between atoms: C_21  and  O_22 
REMARK    4  A    between atoms: C_23  and  C_24 
REMARK    5  A    between atoms: C_24  and  O_25 
ROOT
HETATM    1  O   LIG     1      21.910  19.940  27.502  1.00  0.00    -0.289 OA
HETATM    2  C   LIG     1      22.544  19.930  26.415  1.00  0.00     0.172 C 
HETATM    3  C   LIG     1      22.576  18.722  25.588  1.00  0.00     0.052 C 
HETATM    4  C   LIG     1      23.349  18.674  24.499  1.00  0.00    -0.009 C 
HETATM    5  C   LIG     1      24.378  19.762  24.194  1.00  0.00     0.004 C 
HETATM    6  C   LIG     1      25.692  19.312  24.873  1.00  0.00     0.025 C 
HETATM    7  C   LIG     1      23.952  21.115  24.815  1.00  0.00    -0.060 C 
HETATM    8  C   LIG     1      24.308  22.433  24.128  1.00  0.00     0.012 C 
HETATM    9  C   LIG     1      25.777  22.807  24.373  1.00  0.00     0.015 C 
HETATM   10  C   LIG     1      23.955  22.425  22.610  1.00  0.00     0.014 C 
HETATM   11  C   LIG     1      23.620  21.016  22.068  1.00  0.00    -0.001 C 
HETATM   12  C   LIG     1      24.610  19.962  22.647  1.00  0.00     0.035 C 
HETATM   13  C   LIG     1      24.690  18.687  21.751  1.00  0.00     0.124 C 
HETATM   14  C   LIG     1      25.233  19.032  20.327  1.00  0.00     0.045 C 
HETATM   15  C   LIG     1      24.771  20.436  19.776  1.00  0.00     0.001 C 
HETATM   16  C   LIG     1      25.950  21.455  19.943  1.00  0.00     0.019 C 
HETATM   17  C   LIG     1      23.505  20.902  20.520  1.00  0.00     0.002 C 
HETATM   18  C   LIG     1      22.935  22.058  19.702  1.00  0.00     0.009 C 
HETATM   19  C   LIG     1      23.363  21.758  18.252  1.00  0.00     0.047 C 
HETATM   20  C   LIG     1      24.277  20.492  18.281  1.00  0.00     0.128 C 
HETATM   21  C   LIG     1      23.192  21.149  25.924  1.00  0.00     0.059 C 
ENDROOT
BRANCH  20  22
HETATM   22  C   LIG     1      23.529  19.223  17.827  1.00  0.00     0.184 C 
HETATM   23  O   LIG     1      24.159  18.364  17.226  1.00  0.00    -0.292 OA
BRANCH  22  24
HETATM   24  C   LIG     1      22.059  18.959  18.069  1.00  0.00     0.245 C 
BRANCH  24  25
HETATM   25  O   LIG     1      21.903  18.065  19.138  1.00  0.00    -0.393 OA
HETATM   26  H   LIG     1      22.669  17.434  19.099  1.00  0.00     0.209 HD
ENDBRANCH  24  25
ENDBRANCH  22  24
ENDBRANCH  20  22
BRANCH  20  27
HETATM   27  O   LIG     1      25.374  20.685  17.412  1.00  0.00    -0.381 OA
HETATM   28  H   LIG     1      25.585  19.809  16.992  1.00  0.00     0.211 HD
ENDBRANCH  20  27
BRANCH  13  29
HETATM   29  O   LIG     1      23.421  18.092  21.629  1.00  0.00    -0.395 OA
HETATM   30  H   LIG     1      23.320  17.816  20.681  1.00  0.00     0.210 HD
ENDBRANCH  13  29
TORSDOF 5
ENDMDL
MODEL 6
REMARK VINA RESULT:      -4.5     11.385     14.311
REMARK  5 active torsions:
REMARK  status: ('A' for Active; 'I' for Inactive)
REMARK    1  A    between atoms: C_13  and  O_14 
REMARK    2  A    between atoms: C_21  and  C_23 
REMARK    3  A    between atoms: C_21  and  O_22 
REMARK    4  A    between atoms: C_23  and  C_24 
REMARK    5  A    between atoms: C_24  and  O_25 
ROOT
HETATM    1  O   LIG     1      27.684  27.220  18.629  1.00  0.00    -0.289 OA
HETATM    2  C   LIG     1      27.509  26.116  19.208  1.00  0.00     0.172 C 
HETATM    3  C   LIG     1      28.015  25.903  20.565  1.00  0.00     0.052 C 
HETATM    4  C   LIG     1      27.939  24.693  21.128  1.00  0.00    -0.009 C 
HETATM    5  C   LIG     1      27.533  23.457  20.327  1.00  0.00     0.004 C 
HETATM    6  C   LIG     1      28.844  22.863  19.762  1.00  0.00     0.025 C 
HETATM    7  C   LIG     1      26.625  23.844  19.134  1.00  0.00    -0.060 C 
HETATM    8  C   LIG     1      25.533  22.893  18.645  1.00  0.00     0.012 C 
HETATM    9  C   LIG     1      26.124  21.758  17.798  1.00  0.00     0.015 C 
HETATM   10  C   LIG     1      24.653  22.352  19.812  1.00  0.00     0.014 C 
HETATM   11  C   LIG     1      25.250  22.635  21.210  1.00  0.00    -0.001 C 
HETATM   12  C   LIG     1      26.787  22.381  21.205  1.00  0.00     0.035 C 
HETATM   13  C   LIG     1      27.335  22.105  22.641  1.00  0.00     0.124 C 
HETATM   14  C   LIG     1      26.700  20.812  23.247  1.00  0.00     0.045 C 
HETATM   15  C   LIG     1      25.192  20.579  22.849  1.00  0.00     0.001 C 
HETATM   16  C   LIG     1      25.133  19.494  21.719  1.00  0.00     0.019 C 
HETATM   17  C   LIG     1      24.556  21.907  22.397  1.00  0.00     0.002 C 
HETATM   18  C   LIG     1      23.048  21.668  22.380  1.00  0.00     0.009 C 
HETATM   19  C   LIG     1      22.809  20.596  23.460  1.00  0.00     0.047 C 
HETATM   20  C   LIG     1      24.205  20.149  23.999  1.00  0.00     0.128 C 
HETATM   21  C   LIG     1      26.729  25.058  18.562  1.00  0.00     0.059 C 
ENDROOT
BRANCH  20  22
HETATM   22  C   LIG     1      24.531  20.784  25.365  1.00  0.00     0.184 C 
HETATM   23  O   LIG     1      25.224  20.147  26.148  1.00  0.00    -0.292 OA
BRANCH  22  24
HETATM   24  C   LIG     1      24.054  22.146  25.817  1.00  0.00     0.245 C 
BRANCH  24  25
HETATM   25  O   LIG     1      25.059  23.100  25.606  1.00  0.00    -0.393 OA
HETATM   26  H   LIG     1      25.626  22.761  24.864  1.00  0.00     0.209 HD
ENDBRANCH  24  25
ENDBRANCH  22  24
ENDBRANCH  20  22
BRANCH  20  27
HETATM   27  O   LIG     1      24.220  18.745  24.156  1.00  0.00    -0.381 OA
HETATM   28  H   LIG     1      24.334  18.550  25.124  1.00  0.00     0.211 HD
ENDBRANCH  20  27
BRANCH  13  29
HETATM   29  O   LIG     1      27.063  23.195  23.487  1.00  0.00    -0.395 OA
HETATM   30  H   LIG     1      26.177  23.555  23.220  1.00  0.00     0.210 HD
ENDBRANCH  13  29
TORSDOF 5
ENDMDL
MODEL 7
REMARK VINA RESULT:      -4.5     10.682     14.953
REMARK  5 active torsions:
REMARK  status: ('A' for Active; 'I' for Inactive)
REMARK    1  A    between atoms: C_13  and  O_14 
REMARK    2  A    between atoms: C_21  and  C_23 
REMARK    3  A    between atoms: C_21  and  O_22 
REMARK    4  A    between atoms: C_23  and  C_24 
REMARK    5  A    between atoms: C_24  and  O_25 
ROOT
HETATM    1  O   LIG     1      28.567  20.080  27.119  1.00  0.00    -0.289 OA
HETATM    2  C   LIG     1      27.792  20.587  26.266  1.00  0.00     0.172 C 
HETATM    3  C   LIG     1      28.327  21.387  25.163  1.00  0.00     0.052 C 
HETATM    4  C   LIG     1      27.497  22.027  24.333  1.00  0.00    -0.009 C 
HETATM    5  C   LIG     1      25.999  22.133  24.617  1.00  0.00     0.004 C 
HETATM    6  C   LIG     1      25.809  23.427  25.442  1.00  0.00     0.025 C 
HETATM    7  C   LIG     1      25.512  20.938  25.474  1.00  0.00    -0.060 C 
HETATM    8  C   LIG     1      24.098  20.383  25.304  1.00  0.00     0.012 C 
HETATM    9  C   LIG     1      23.064  21.276  26.001  1.00  0.00     0.015 C 
HETATM   10  C   LIG     1      23.737  20.130  23.809  1.00  0.00     0.014 C 
HETATM   11  C   LIG     1      24.738  20.772  22.821  1.00  0.00    -0.001 C 
HETATM   12  C   LIG     1      25.134  22.200  23.300  1.00  0.00     0.035 C 
HETATM   13  C   LIG     1      25.663  23.081  22.125  1.00  0.00     0.124 C 
HETATM   14  C   LIG     1      24.558  23.296  21.041  1.00  0.00     0.045 C 
HETATM   15  C   LIG     1      23.613  22.053  20.818  1.00  0.00     0.001 C 
HETATM   16  C   LIG     1      22.255  22.314  21.557  1.00  0.00     0.019 C 
HETATM   17  C   LIG     1      24.301  20.772  21.327  1.00  0.00     0.002 C 
HETATM   18  C   LIG     1      23.496  19.606  20.759  1.00  0.00     0.009 C 
HETATM   19  C   LIG     1      22.911  20.142  19.438  1.00  0.00     0.047 C 
HETATM   20  C   LIG     1      23.295  21.651  19.328  1.00  0.00     0.128 C 
HETATM   21  C   LIG     1      26.353  20.318  26.321  1.00  0.00     0.059 C 
ENDROOT
BRANCH  20  22
HETATM   22  C   LIG     1      24.472  21.884  18.360  1.00  0.00     0.184 C 
HETATM   23  O   LIG     1      24.561  22.973  17.810  1.00  0.00    -0.292 OA
BRANCH  22  24
HETATM   24  C   LIG     1      25.533  20.857  18.033  1.00  0.00     0.245 C 
BRANCH  24  25
HETATM   25  O   LIG     1      26.670  21.074  18.824  1.00  0.00    -0.393 OA
HETATM   26  H   LIG     1      27.403  20.535  18.426  1.00  0.00     0.209 HD
ENDBRANCH  24  25
ENDBRANCH  22  24
ENDBRANCH  20  22
BRANCH  20  27
HETATM   27  O   LIG     1      22.187  22.384  18.851  1.00  0.00    -0.381 OA
HETATM   28  H   LIG     1      21.677  22.711  19.641  1.00  0.00     0.211 HD
ENDBRANCH  20  27
BRANCH  13  29
HETATM   29  O   LIG     1      26.785  22.480  21.528  1.00  0.00    -0.395 OA
HETATM   30  H   LIG     1      27.489  23.178  21.467  1.00  0.00     0.210 HD
ENDBRANCH  13  29
TORSDOF 5
ENDMDL
MODEL 8
REMARK VINA RESULT:      -4.4     14.447     16.492
REMARK  5 active torsions:
REMARK  status: ('A' for Active; 'I' for Inactive)
REMARK    1  A    between atoms: C_13  and  O_14 
REMARK    2  A    between atoms: C_21  and  C_23 
REMARK    3  A    between atoms: C_21  and  O_22 
REMARK    4  A    between atoms: C_23  and  C_24 
REMARK    5  A    between atoms: C_24  and  O_25 
ROOT
HETATM    1  O   LIG     1      29.243  26.252  15.835  1.00  0.00    -0.289 OA
HETATM    2  C   LIG     1      28.824  25.398  16.660  1.00  0.00     0.172 C 
HETATM    3  C   LIG     1      28.283  25.822  17.953  1.00  0.00     0.052 C 
HETATM    4  C   LIG     1      27.956  24.911  18.875  1.00  0.00    -0.009 C 
HETATM    5  C   LIG     1      28.324  23.436  18.716  1.00  0.00     0.004 C 
HETATM    6  C   LIG     1      29.715  23.269  19.370  1.00  0.00     0.025 C 
HETATM    7  C   LIG     1      28.446  23.055  17.220  1.00  0.00    -0.060 C 
HETATM    8  C   LIG     1      28.076  21.650  16.742  1.00  0.00     0.012 C 
HETATM    9  C   LIG     1      29.189  20.644  17.067  1.00  0.00     0.015 C 
HETATM   10  C   LIG     1      26.693  21.184  17.286  1.00  0.00     0.014 C 
HETATM   11  C   LIG     1      26.144  22.087  18.415  1.00  0.00    -0.001 C 
HETATM   12  C   LIG     1      27.284  22.472  19.404  1.00  0.00     0.035 C 
HETATM   13  C   LIG     1      26.726  22.882  20.803  1.00  0.00     0.124 C 
HETATM   14  C   LIG     1      25.972  21.691  21.479  1.00  0.00     0.045 C 
HETATM   15  C   LIG     1      25.173  20.773  20.476  1.00  0.00     0.001 C 
HETATM   16  C   LIG     1      26.003  19.467  20.221  1.00  0.00     0.019 C 
HETATM   17  C   LIG     1      24.897  21.538  19.168  1.00  0.00     0.002 C 
HETATM   18  C   LIG     1      23.839  20.729  18.421  1.00  0.00     0.009 C 
HETATM   19  C   LIG     1      23.028  20.029  19.529  1.00  0.00     0.047 C 
HETATM   20  C   LIG     1      23.712  20.355  20.894  1.00  0.00     0.128 C 
HETATM   21  C   LIG     1      28.798  23.977  16.306  1.00  0.00     0.059 C 
ENDROOT
BRANCH  20  22
HETATM   22  C   LIG     1      22.956  21.447  21.677  1.00  0.00     0.184 C 
HETATM   23  O   LIG     1      22.803  21.293  22.881  1.00  0.00    -0.292 OA
BRANCH  22  24
HETATM   24  C   LIG     1      22.382  22.704  21.064  1.00  0.00     0.245 C 
BRANCH  24  25
HETATM   25  O   LIG     1      22.990  23.834  21.630  1.00  0.00    -0.393 OA
HETATM   26  H   LIG     1      23.380  24.356  20.881  1.00  0.00     0.209 HD
ENDBRANCH  24  25
ENDBRANCH  22  24
ENDBRANCH  20  22
BRANCH  20  27
HETATM   27  O   LIG     1      23.747  19.191  21.692  1.00  0.00    -0.381 OA
HETATM   28  H   LIG     1      24.123  18.456  21.138  1.00  0.00     0.211 HD
ENDBRANCH  20  27
BRANCH  13  29
HETATM   29  O   LIG     1      25.848  23.975  20.681  1.00  0.00    -0.395 OA
HETATM   30  H   LIG     1      25.693  24.325  21.596  1.00  0.00     0.210 HD
ENDBRANCH  13  29
TORSDOF 5
ENDMDL
MODEL 9
REMARK VINA RESULT:      -4.4      9.490     12.542
REMARK  5 active torsions:
REMARK  status: ('A' for Active; 'I' for Inactive)
REMARK    1  A    between atoms: C_13  and  O_14 
REMARK    2  A    between atoms: C_21  and  C_23 
REMARK    3  A    between atoms: C_21  and  O_22 
REMARK    4  A    between atoms: C_23  and  C_24 
REMARK    5  A    between atoms: C_24  and  O_25 
ROOT
HETATM    1  O   LIG     1      23.275  19.793  18.703  1.00  0.00    -0.289 OA
HETATM    2  C   LIG     1      23.664  20.490  19.676  1.00  0.00     0.172 C 
HETATM    3  C   LIG     1      23.185  20.205  21.030  1.00  0.00     0.052 C 
HETATM    4  C   LIG     1      23.498  21.022  22.040  1.00  0.00    -0.009 C 
HETATM    5  C   LIG     1      24.169  22.374  21.802  1.00  0.00     0.004 C 
HETATM    6  C   LIG     1      23.021  23.397  21.630  1.00  0.00     0.025 C 
HETATM    7  C   LIG     1      25.001  22.358  20.497  1.00  0.00    -0.060 C 
HETATM    8  C   LIG     1      26.277  23.191  20.376  1.00  0.00     0.012 C 
HETATM    9  C   LIG     1      25.952  24.669  20.124  1.00  0.00     0.015 C 
HETATM   10  C   LIG     1      27.225  23.003  21.598  1.00  0.00     0.014 C 
HETATM   11  C   LIG     1      26.553  22.279  22.788  1.00  0.00    -0.001 C 
HETATM   12  C   LIG     1      25.103  22.808  22.996  1.00  0.00     0.035 C 
HETATM   13  C   LIG     1      24.594  22.552  24.450  1.00  0.00     0.124 C 
HETATM   14  C   LIG     1      25.471  23.314  25.495  1.00  0.00     0.045 C 
HETATM   15  C   LIG     1      27.003  23.393  25.127  1.00  0.00     0.001 C 
HETATM   16  C   LIG     1      27.309  24.819  24.553  1.00  0.00     0.019 C 
HETATM   17  C   LIG     1      27.359  22.284  24.120  1.00  0.00     0.002 C 
HETATM   18  C   LIG     1      28.884  22.206  24.099  1.00  0.00     0.009 C 
HETATM   19  C   LIG     1      29.317  22.651  25.509  1.00  0.00     0.047 C 
HETATM   20  C   LIG     1      28.033  23.092  26.281  1.00  0.00     0.128 C 
HETATM   21  C   LIG     1      24.660  21.546  19.479  1.00  0.00     0.059 C 
ENDROOT
BRANCH  20  22
HETATM   22  C   LIG     1      27.554  22.017  27.276  1.00  0.00     0.184 C 
HETATM   23  O   LIG     1      27.056  22.386  28.330  1.00  0.00    -0.292 OA
BRANCH  22  24
HETATM   24  C   LIG     1      27.656  20.526  27.046  1.00  0.00     0.245 C 
BRANCH  24  25
HETATM   25  O   LIG     1      26.404  20.011  26.678  1.00  0.00    -0.393 OA
HETATM   26  H   LIG     1      26.010  19.604  27.494  1.00  0.00     0.209 HD
ENDBRANCH  24  25
ENDBRANCH  22  24
ENDBRANCH  20  22
BRANCH  20  27
HETATM   27  O   LIG     1      28.306  24.270  27.010  1.00  0.00    -0.381 OA
HETATM   28  H   LIG     1      28.274  25.034  26.375  1.00  0.00     0.211 HD
ENDBRANCH  20  27
BRANCH  13  29
HETATM   29  O   LIG     1      24.617  21.176  24.743  1.00  0.00    -0.395 OA
HETATM   30  H   LIG     1      24.997  20.718  23.949  1.00  0.00     0.210 HD
ENDBRANCH  13  29
TORSDOF 5
ENDMDL
MODEL 10
REMARK VINA RESULT:      -4.3      8.284     11.967
REMARK  5 active torsions:
REMARK  status: ('A' for Active; 'I' for Inactive)
REMARK    1  A    between atoms: C_13  and  O_14 
REMARK    2  A    between atoms: C_21  and  C_23 
REMARK    3  A    between atoms: C_21  and  O_22 
REMARK    4  A    between atoms: C_23  and  C_24 
REMARK    5  A    between atoms: C_24  and  O_25 
ROOT
HETATM    1  O   LIG     1      26.070  25.796  18.789  1.00  0.00    -0.289 OA
HETATM    2  C   LIG     1      26.334  25.064  19.778  1.00  0.00     0.172 C 
HETATM    3  C   LIG     1      27.422  25.418  20.692  1.00  0.00     0.052 C 
HETATM    4  C   LIG     1      27.781  24.577  21.667  1.00  0.00    -0.009 C 
HETATM    5  C   LIG     1      27.241  23.150  21.738  1.00  0.00     0.004 C 
HETATM    6  C   LIG     1      28.228  22.277  20.928  1.00  0.00     0.025 C 
HETATM    7  C   LIG     1      25.849  23.051  21.067  1.00  0.00    -0.060 C 
HETATM    8  C   LIG     1      24.802  22.064  21.586  1.00  0.00     0.012 C 
HETATM    9  C   LIG     1      25.106  20.636  21.115  1.00  0.00     0.015 C 
HETATM   10  C   LIG     1      24.630  22.143  23.133  1.00  0.00     0.014 C 
HETATM   11  C   LIG     1      25.744  22.955  23.832  1.00  0.00    -0.001 C 
HETATM   12  C   LIG     1      27.133  22.613  23.216  1.00  0.00     0.035 C 
HETATM   13  C   LIG     1      28.301  22.943  24.198  1.00  0.00     0.124 C 
HETATM   14  C   LIG     1      28.200  22.086  25.501  1.00  0.00     0.045 C 
HETATM   15  C   LIG     1      26.725  21.814  25.989  1.00  0.00     0.001 C 
HETATM   16  C   LIG     1      26.321  20.356  25.579  1.00  0.00     0.019 C 
HETATM   17  C   LIG     1      25.770  22.861  25.386  1.00  0.00     0.002 C 
HETATM   18  C   LIG     1      24.467  22.747  26.173  1.00  0.00     0.009 C 
HETATM   19  C   LIG     1      24.897  22.264  27.572  1.00  0.00     0.047 C 
HETATM   20  C   LIG     1      26.434  21.993  27.527  1.00  0.00     0.128 C 
HETATM   21  C   LIG     1      25.508  23.890  20.072  1.00  0.00     0.059 C 
ENDROOT
BRANCH  20  22
HETATM   22  C   LIG     1      27.244  23.128  28.183  1.00  0.00     0.184 C 
HETATM   23  O   LIG     1      28.252  22.831  28.811  1.00  0.00    -0.292 OA
BRANCH  22  24
HETATM   24  C   LIG     1      26.884  24.595  28.111  1.00  0.00     0.245 C 
BRANCH  24  25
HETATM   25  O   LIG     1      27.740  25.255  27.217  1.00  0.00    -0.393 OA
HETATM   26  H   LIG     1      28.183  25.982  27.728  1.00  0.00     0.209 HD
ENDBRANCH  24  25
ENDBRANCH  22  24
ENDBRANCH  20  22
BRANCH  20  27
HETATM   27  O   LIG     1      26.720  20.796  28.220  1.00  0.00    -0.381 OA
HETATM   28  H   LIG     1      26.033  20.125  27.961  1.00  0.00     0.211 HD
ENDBRANCH  20  27
BRANCH  13  29
HETATM   29  O   LIG     1      28.285  24.307  24.540  1.00  0.00    -0.395 OA
HETATM   30  H   LIG     1      27.467  24.460  25.080  1.00  0.00     0.210 HD
ENDBRANCH  13  29
TORSDOF 5
ENDMDL
MODEL 11
REMARK VINA RESULT:      -4.3      3.398      8.323
REMARK  5 active torsions:
REMARK  status: ('A' for Active; 'I' for Inactive)
REMARK    1  A    between atoms: C_13  and  O_14 
REMARK    2  A    between atoms: C_21  and  C_23 
REMARK    3  A    between atoms: C_21  and  O_22 
REMARK    4  A    between atoms: C_23  and  C_24 
REMARK    5  A    between atoms: C_24  and  O_25 
ROOT
HETATM    1  O   LIG     1      26.567  27.600  34.911  1.00  0.00    -0.289 OA
HETATM    2  C   LIG     1      27.043  27.035  33.892  1.00  0.00     0.172 C 
HETATM    3  C   LIG     1      27.286  25.591  33.890  1.00  0.00     0.052 C 
HETATM    4  C   LIG     1      27.907  25.015  32.857  1.00  0.00    -0.009 C 
HETATM    5  C   LIG     1      28.573  25.840  31.757  1.00  0.00     0.004 C 
HETATM    6  C   LIG     1      30.032  26.068  32.216  1.00  0.00     0.025 C 
HETATM    7  C   LIG     1      27.891  27.223  31.612  1.00  0.00    -0.060 C 
HETATM    8  C   LIG     1      27.807  27.911  30.250  1.00  0.00     0.012 C 
HETATM    9  C   LIG     1      29.146  28.557  29.871  1.00  0.00     0.015 C 
HETATM   10  C   LIG     1      27.285  26.956  29.135  1.00  0.00     0.014 C 
HETATM   11  C   LIG     1      27.262  25.471  29.563  1.00  0.00    -0.001 C 
HETATM   12  C   LIG     1      28.554  25.115  30.357  1.00  0.00     0.035 C 
HETATM   13  C   LIG     1      28.852  23.583  30.326  1.00  0.00     0.124 C 
HETATM   14  C   LIG     1      29.109  23.089  28.866  1.00  0.00     0.045 C 
HETATM   15  C   LIG     1      28.235  23.812  27.770  1.00  0.00     0.001 C 
HETATM   16  C   LIG     1      29.122  24.883  27.046  1.00  0.00     0.019 C 
HETATM   17  C   LIG     1      26.993  24.446  28.422  1.00  0.00     0.002 C 
HETATM   18  C   LIG     1      26.048  24.799  27.277  1.00  0.00     0.009 C 
HETATM   19  C   LIG     1      26.359  23.761  26.181  1.00  0.00     0.047 C 
HETATM   20  C   LIG     1      27.566  22.901  26.672  1.00  0.00     0.128 C 
HETATM   21  C   LIG     1      27.289  27.801  32.667  1.00  0.00     0.059 C 
ENDROOT
BRANCH  20  22
HETATM   22  C   LIG     1      27.121  21.522  27.197  1.00  0.00     0.184 C 
HETATM   23  O   LIG     1      27.878  20.573  27.042  1.00  0.00    -0.292 OA
BRANCH  22  24
HETATM   24  C   LIG     1      25.807  21.249  27.894  1.00  0.00     0.245 C 
BRANCH  24  25
HETATM   25  O   LIG     1      25.995  21.239  29.284  1.00  0.00    -0.393 OA
HETATM   26  H   LIG     1      26.599  20.477  29.486  1.00  0.00     0.209 HD
ENDBRANCH  24  25
ENDBRANCH  22  24
ENDBRANCH  20  22
BRANCH  20  27
HETATM   27  O   LIG     1      28.460  22.692  25.599  1.00  0.00    -0.381 OA
HETATM   28  H   LIG     1      28.595  23.565  25.143  1.00  0.00     0.211 HD
ENDBRANCH  20  27
BRANCH  13  29
HETATM   29  O   LIG     1      27.775  22.863  30.874  1.00  0.00    -0.395 OA
HETATM   30  H   LIG     1      27.075  22.810  30.173  1.00  0.00     0.210 HD
ENDBRANCH  13  29
TORSDOF 5
ENDMDL
MODEL 12
REMARK VINA RESULT:      -4.3     11.924     15.159
REMARK  5 active torsions:
REMARK  status: ('A' for Active; 'I' for Inactive)
REMARK    1  A    between atoms: C_13  and  O_14 
REMARK    2  A    between atoms: C_21  and  C_23 
REMARK    3  A    between atoms: C_21  and  O_22 
REMARK    4  A    between atoms: C_23  and  C_24 
REMARK    5  A    between atoms: C_24  and  O_25 
ROOT
HETATM    1  O   LIG     1      23.297  18.230  16.070  1.00  0.00    -0.289 OA
HETATM    2  C   LIG     1      23.574  19.030  17.001  1.00  0.00     0.172 C 
HETATM    3  C   LIG     1      22.560  19.391  17.994  1.00  0.00     0.052 C 
HETATM    4  C   LIG     1      22.819  20.334  18.905  1.00  0.00    -0.009 C 
HETATM    5  C   LIG     1      24.066  21.213  18.823  1.00  0.00     0.004 C 
HETATM    6  C   LIG     1      23.665  22.450  17.987  1.00  0.00     0.025 C 
HETATM    7  C   LIG     1      25.211  20.480  18.082  1.00  0.00    -0.060 C 
HETATM    8  C   LIG     1      26.671  20.731  18.461  1.00  0.00     0.012 C 
HETATM    9  C   LIG     1      27.174  22.059  17.879  1.00  0.00     0.015 C 
HETATM   10  C   LIG     1      26.907  20.642  19.999  1.00  0.00     0.014 C 
HETATM   11  C   LIG     1      25.597  20.631  20.820  1.00  0.00    -0.001 C 
HETATM   12  C   LIG     1      24.585  21.665  20.242  1.00  0.00     0.035 C 
HETATM   13  C   LIG     1      23.525  22.095  21.303  1.00  0.00     0.124 C 
HETATM   14  C   LIG     1      24.202  22.807  22.519  1.00  0.00     0.045 C 
HETATM   15  C   LIG     1      25.615  22.226  22.910  1.00  0.00     0.001 C 
HETATM   16  C   LIG     1      26.724  23.184  22.353  1.00  0.00     0.019 C 
HETATM   17  C   LIG     1      25.766  20.797  22.358  1.00  0.00     0.002 C 
HETATM   18  C   LIG     1      26.976  20.195  23.070  1.00  0.00     0.009 C 
HETATM   19  C   LIG     1      27.014  20.901  24.439  1.00  0.00     0.047 C 
HETATM   20  C   LIG     1      25.892  21.987  24.442  1.00  0.00     0.128 C 
HETATM   21  C   LIG     1      24.936  19.549  17.151  1.00  0.00     0.059 C 
ENDROOT
BRANCH  20  22
HETATM   22  C   LIG     1      24.649  21.536  25.234  1.00  0.00     0.184 C 
HETATM   23  O   LIG     1      24.105  22.350  25.969  1.00  0.00    -0.292 OA
BRANCH  22  24
HETATM   24  C   LIG     1      24.046  20.151  25.174  1.00  0.00     0.245 C 
BRANCH  24  25
HETATM   25  O   LIG     1      22.810  20.194  24.514  1.00  0.00    -0.393 OA
HETATM   26  H   LIG     1      22.364  21.036  24.795  1.00  0.00     0.209 HD
ENDBRANCH  24  25
ENDBRANCH  22  24
ENDBRANCH  20  22
BRANCH  20  27
HETATM   27  O   LIG     1      26.385  23.169  25.039  1.00  0.00    -0.381 OA
HETATM   28  H   LIG     1      25.664  23.852  24.997  1.00  0.00     0.211 HD
ENDBRANCH  20  27
BRANCH  13  29
HETATM   29  O   LIG     1      22.809  20.976  21.764  1.00  0.00    -0.395 OA
HETATM   30  H   LIG     1      22.988  20.898  22.736  1.00  0.00     0.210 HD
ENDBRANCH  13  29
TORSDOF 5
ENDMDL
MODEL 13
REMARK VINA RESULT:      -4.3     12.077     14.613
REMARK  5 active torsions:
REMARK  status: ('A' for Active; 'I' for Inactive)
REMARK    1  A    between atoms: C_13  and  O_14 
REMARK    2  A    between atoms: C_21  and  C_23 
REMARK    3  A    between atoms: C_21  and  O_22 
REMARK    4  A    between atoms: C_23  and  C_24 
REMARK    5  A    between atoms: C_24  and  O_25 
ROOT
HETATM    1  O   LIG     1      29.871  24.499  16.837  1.00  0.00    -0.289 OA
HETATM    2  C   LIG     1      29.009  24.314  17.735  1.00  0.00     0.172 C 
HETATM    3  C   LIG     1      27.704  23.739  17.401  1.00  0.00     0.052 C 
HETATM    4  C   LIG     1      26.748  23.659  18.331  1.00  0.00    -0.009 C 
HETATM    5  C   LIG     1      26.887  24.346  19.689  1.00  0.00     0.004 C 
HETATM    6  C   LIG     1      26.288  25.762  19.517  1.00  0.00     0.025 C 
HETATM    7  C   LIG     1      28.376  24.497  20.083  1.00  0.00    -0.060 C 
HETATM    8  C   LIG     1      28.804  24.438  21.550  1.00  0.00     0.012 C 
HETATM    9  C   LIG     1      28.503  25.760  22.268  1.00  0.00     0.015 C 
HETATM   10  C   LIG     1      28.190  23.216  22.297  1.00  0.00     0.014 C 
HETATM   11  C   LIG     1      27.060  22.518  21.505  1.00  0.00    -0.001 C 
HETATM   12  C   LIG     1      26.131  23.577  20.839  1.00  0.00     0.035 C 
HETATM   13  C   LIG     1      24.720  22.991  20.520  1.00  0.00     0.124 C 
HETATM   14  C   LIG     1      23.983  22.551  21.826  1.00  0.00     0.045 C 
HETATM   15  C   LIG     1      24.929  21.946  22.934  1.00  0.00     0.001 C 
HETATM   16  C   LIG     1      25.188  23.040  24.027  1.00  0.00     0.019 C 
HETATM   17  C   LIG     1      26.242  21.457  22.295  1.00  0.00     0.002 C 
HETATM   18  C   LIG     1      26.923  20.583  23.346  1.00  0.00     0.009 C 
HETATM   19  C   LIG     1      25.765  19.992  24.173  1.00  0.00     0.047 C 
HETATM   20  C   LIG     1      24.439  20.634  23.656  1.00  0.00     0.128 C 
HETATM   21  C   LIG     1      29.327  24.598  19.137  1.00  0.00     0.059 C 
ENDROOT
BRANCH  20  22
HETATM   22  C   LIG     1      23.651  19.679  22.737  1.00  0.00     0.184 C 
HETATM   23  O   LIG     1      22.431  19.666  22.828  1.00  0.00    -0.292 OA
BRANCH  22  24
HETATM   24  C   LIG     1      24.277  18.747  21.724  1.00  0.00     0.245 C 
BRANCH  24  25
HETATM   25  O   LIG     1      24.049  19.227  20.426  1.00  0.00    -0.393 OA
HETATM   26  H   LIG     1      24.844  19.767  20.176  1.00  0.00     0.209 HD
ENDBRANCH  24  25
ENDBRANCH  22  24
ENDBRANCH  20  22
BRANCH  20  27
HETATM   27  O   LIG     1      23.615  20.960  24.755  1.00  0.00    -0.381 OA
HETATM   28  H   LIG     1      23.656  21.945  24.882  1.00  0.00     0.211 HD
ENDBRANCH  20  27
BRANCH  13  29
HETATM   29  O   LIG     1      24.831  21.886  19.658  1.00  0.00    -0.395 OA
HETATM   30  H   LIG     1      25.683  21.428  19.881  1.00  0.00     0.210 HD
ENDBRANCH  13  29
TORSDOF 5
ENDMDL
MODEL 14
REMARK VINA RESULT:      -4.2      9.527     13.123
REMARK  5 active torsions:
REMARK  status: ('A' for Active; 'I' for Inactive)
REMARK    1  A    between atoms: C_13  and  O_14 
REMARK    2  A    between atoms: C_21  and  C_23 
REMARK    3  A    between atoms: C_21  and  O_22 
REMARK    4  A    between atoms: C_23  and  C_24 
REMARK    5  A    between atoms: C_24  and  O_25 
ROOT
HETATM    1  O   LIG     1      22.829  22.039  18.265  1.00  0.00    -0.289 OA
HETATM    2  C   LIG     1      23.474  21.774  19.312  1.00  0.00     0.172 C 
HETATM    3  C   LIG     1      24.695  22.514  19.637  1.00  0.00     0.052 C 
HETATM    4  C   LIG     1      25.445  22.147  20.681  1.00  0.00    -0.009 C 
HETATM    5  C   LIG     1      25.193  20.842  21.434  1.00  0.00     0.004 C 
HETATM    6  C   LIG     1      26.051  19.767  20.728  1.00  0.00     0.025 C 
HETATM    7  C   LIG     1      23.707  20.420  21.327  1.00  0.00    -0.060 C 
HETATM    8  C   LIG     1      23.025  19.673  22.474  1.00  0.00     0.012 C 
HETATM    9  C   LIG     1      23.423  18.191  22.483  1.00  0.00     0.015 C 
HETATM   10  C   LIG     1      23.274  20.352  23.854  1.00  0.00     0.014 C 
HETATM   11  C   LIG     1      24.385  21.427  23.816  1.00  0.00    -0.001 C 
HETATM   12  C   LIG     1      25.588  20.933  22.958  1.00  0.00     0.035 C 
HETATM   13  C   LIG     1      26.908  21.681  23.325  1.00  0.00     0.124 C 
HETATM   14  C   LIG     1      27.315  21.409  24.809  1.00  0.00     0.045 C 
HETATM   15  C   LIG     1      26.098  21.284  25.805  1.00  0.00     0.001 C 
HETATM   16  C   LIG     1      25.848  19.766  26.105  1.00  0.00     0.019 C 
HETATM   17  C   LIG     1      24.853  21.959  25.201  1.00  0.00     0.002 C 
HETATM   18  C   LIG     1      23.855  22.107  26.347  1.00  0.00     0.009 C 
HETATM   19  C   LIG     1      24.728  22.241  27.610  1.00  0.00     0.047 C 
HETATM   20  C   LIG     1      26.216  22.046  27.179  1.00  0.00     0.128 C 
HETATM   21  C   LIG     1      22.970  20.777  20.260  1.00  0.00     0.059 C 
ENDROOT
BRANCH  20  22
HETATM   22  C   LIG     1      26.973  23.386  27.082  1.00  0.00     0.184 C 
HETATM   23  O   LIG     1      28.116  23.436  27.516  1.00  0.00    -0.292 OA
BRANCH  22  24
HETATM   24  C   LIG     1      26.404  24.655  26.488  1.00  0.00     0.245 C 
BRANCH  24  25
HETATM   25  O   LIG     1      27.076  24.970  25.299  1.00  0.00    -0.393 OA
HETATM   26  H   LIG     1      28.015  24.668  25.411  1.00  0.00     0.209 HD
ENDBRANCH  24  25
ENDBRANCH  22  24
ENDBRANCH  20  22
BRANCH  20  27
HETATM   27  O   LIG     1      26.878  21.239  28.130  1.00  0.00    -0.381 OA
HETATM   28  H   LIG     1      26.454  21.403  29.014  1.00  0.00     0.211 HD
ENDBRANCH  20  27
BRANCH  13  29
HETATM   29  O   LIG     1      26.758  23.066  23.133  1.00  0.00    -0.395 OA
HETATM   30  H   LIG     1      25.961  23.193  22.555  1.00  0.00     0.210 HD
ENDBRANCH  13  29
TORSDOF 5
ENDMDL
MODEL 15
REMARK VINA RESULT:      -4.2      7.065     10.717
REMARK  5 active torsions:
REMARK  status: ('A' for Active; 'I' for Inactive)
REMARK    1  A    between atoms: C_13  and  O_14 
REMARK    2  A    between atoms: C_21  and  C_23 
REMARK    3  A    between atoms: C_21  and  O_22 
REMARK    4  A    between atoms: C_23  and  C_24 
REMARK    5  A    between atoms: C_24  and  O_25 
ROOT
HETATM    1  O   LIG     1      25.441  23.829  19.465  1.00  0.00    -0.289 OA
HETATM    2  C   LIG     1      25.910  23.555  20.600  1.00  0.00     0.172 C 
HETATM    3  C   LIG     1      27.310  23.849  20.913  1.00  0.00     0.052 C 
HETATM    4  C   LIG     1      27.838  23.443  22.072  1.00  0.00    -0.009 C 
HETATM    5  C   LIG     1      27.094  22.489  23.006  1.00  0.00     0.004 C 
HETATM    6  C   LIG     1      27.507  21.061  22.577  1.00  0.00     0.025 C 
HETATM    7  C   LIG     1      25.562  22.622  22.827  1.00  0.00    -0.060 C 
HETATM    8  C   LIG     1      24.618  22.409  24.010  1.00  0.00     0.012 C 
HETATM    9  C   LIG     1      24.431  20.915  24.307  1.00  0.00     0.015 C 
HETATM   10  C   LIG     1      25.064  23.202  25.275  1.00  0.00     0.014 C 
HETATM   11  C   LIG     1      26.498  23.772  25.165  1.00  0.00    -0.001 C 
HETATM   12  C   LIG     1      27.452  22.721  24.523  1.00  0.00     0.035 C 
HETATM   13  C   LIG     1      28.945  22.995  24.887  1.00  0.00     0.124 C 
HETATM   14  C   LIG     1      29.179  22.885  26.428  1.00  0.00     0.045 C 
HETATM   15  C   LIG     1      27.977  23.403  27.308  1.00  0.00     0.001 C 
HETATM   16  C   LIG     1      27.167  22.168  27.832  1.00  0.00     0.019 C 
HETATM   17  C   LIG     1      27.092  24.354  26.480  1.00  0.00     0.002 C 
HETATM   18  C   LIG     1      26.190  25.072  27.482  1.00  0.00     0.009 C 
HETATM   19  C   LIG     1      27.014  25.119  28.784  1.00  0.00     0.047 C 
HETATM   20  C   LIG     1      28.332  24.320  28.539  1.00  0.00     0.128 C 
HETATM   21  C   LIG     1      25.043  23.010  21.648  1.00  0.00     0.059 C 
ENDROOT
BRANCH  20  22
HETATM   22  C   LIG     1      29.538  25.248  28.293  1.00  0.00     0.184 C 
HETATM   23  O   LIG     1      30.641  24.875  28.672  1.00  0.00    -0.292 OA
BRANCH  22  24
HETATM   24  C   LIG     1      29.461  26.597  27.615  1.00  0.00     0.245 C 
BRANCH  24  25
HETATM   25  O   LIG     1      29.860  26.483  26.275  1.00  0.00    -0.393 OA
HETATM   26  H   LIG     1      29.780  25.524  26.032  1.00  0.00     0.209 HD
ENDBRANCH  24  25
ENDBRANCH  22  24
ENDBRANCH  20  22
BRANCH  20  27
HETATM   27  O   LIG     1      28.617  23.526  29.672  1.00  0.00    -0.381 OA
HETATM   28  H   LIG     1      28.337  24.037  30.478  1.00  0.00     0.211 HD
ENDBRANCH  20  27
BRANCH  13  29
HETATM   29  O   LIG     1      29.330  24.275  24.452  1.00  0.00    -0.395 OA
HETATM   30  H   LIG     1      30.321  24.277  24.396  1.00  0.00     0.210 HD
ENDBRANCH  13  29
TORSDOF 5
ENDMDL
MODEL 16
REMARK VINA RESULT:      -3.9     10.719     15.066
REMARK  5 active torsions:
REMARK  status: ('A' for Active; 'I' for Inactive)
REMARK    1  A    between atoms: C_13  and  O_14 
REMARK    2  A    between atoms: C_21  and  C_23 
REMARK    3  A    between atoms: C_21  and  O_22 
REMARK    4  A    between atoms: C_23  and  C_24 
REMARK    5  A    between atoms: C_24  and  O_25 
ROOT
HETATM    1  O   LIG     1      25.996  19.147  28.252  1.00  0.00    -0.289 OA
HETATM    2  C   LIG     1      26.040  19.555  27.062  1.00  0.00     0.172 C 
HETATM    3  C   LIG     1      26.176  18.603  25.958  1.00  0.00     0.052 C 
HETATM    4  C   LIG     1      26.348  19.044  24.708  1.00  0.00    -0.009 C 
HETATM    5  C   LIG     1      26.625  20.516  24.405  1.00  0.00     0.004 C 
HETATM    6  C   LIG     1      28.163  20.677  24.434  1.00  0.00     0.025 C 
HETATM    7  C   LIG     1      26.024  21.430  25.502  1.00  0.00    -0.060 C 
HETATM    8  C   LIG     1      25.500  22.823  25.154  1.00  0.00     0.012 C 
HETATM    9  C   LIG     1      26.652  23.822  24.984  1.00  0.00     0.015 C 
HETATM   10  C   LIG     1      24.555  22.808  23.915  1.00  0.00     0.014 C 
HETATM   11  C   LIG     1      24.595  21.476  23.131  1.00  0.00    -0.001 C 
HETATM   12  C   LIG     1      26.062  20.965  23.003  1.00  0.00     0.035 C 
HETATM   13  C   LIG     1      26.232  19.985  21.801  1.00  0.00     0.124 C 
HETATM   14  C   LIG     1      25.918  20.696  20.445  1.00  0.00     0.045 C 
HETATM   15  C   LIG     1      24.756  21.760  20.522  1.00  0.00     0.001 C 
HETATM   16  C   LIG     1      25.389  23.193  20.570  1.00  0.00     0.019 C 
HETATM   17  C   LIG     1      23.872  21.485  21.753  1.00  0.00     0.002 C 
HETATM   18  C   LIG     1      22.603  22.310  21.554  1.00  0.00     0.009 C 
HETATM   19  C   LIG     1      22.435  22.405  20.025  1.00  0.00     0.047 C 
HETATM   20  C   LIG     1      23.682  21.732  19.369  1.00  0.00     0.128 C 
HETATM   21  C   LIG     1      25.877  20.980  26.761  1.00  0.00     0.059 C 
ENDROOT
BRANCH  20  22
HETATM   22  C   LIG     1      23.371  20.316  18.846  1.00  0.00     0.184 C 
HETATM   23  O   LIG     1      22.809  19.532  19.598  1.00  0.00    -0.292 OA
BRANCH  22  24
HETATM   24  C   LIG     1      23.712  19.817  17.459  1.00  0.00     0.245 C 
BRANCH  24  25
HETATM   25  O   LIG     1      25.043  20.134  17.150  1.00  0.00    -0.393 OA
HETATM   26  H   LIG     1      25.153  19.988  16.174  1.00  0.00     0.209 HD
ENDBRANCH  24  25
ENDBRANCH  22  24
ENDBRANCH  20  22
BRANCH  20  27
HETATM   27  O   LIG     1      24.118  22.515  18.277  1.00  0.00    -0.381 OA
HETATM   28  H   LIG     1      25.090  22.687  18.397  1.00  0.00     0.211 HD
ENDBRANCH  20  27
BRANCH  13  29
HETATM   29  O   LIG     1      25.381  18.875  21.948  1.00  0.00    -0.395 OA
HETATM   30  H   LIG     1      25.922  18.147  22.351  1.00  0.00     0.210 HD
ENDBRANCH  13  29
TORSDOF 5
ENDMDL
MODEL 17
REMARK VINA RESULT:      -3.9     11.041     14.075
REMARK  5 active torsions:
REMARK  status: ('A' for Active; 'I' for Inactive)
REMARK    1  A    between atoms: C_13  and  O_14 
REMARK    2  A    between atoms: C_21  and  C_23 
REMARK    3  A    between atoms: C_21  and  O_22 
REMARK    4  A    between atoms: C_23  and  C_24 
REMARK    5  A    between atoms: C_24  and  O_25 
ROOT
HETATM    1  O   LIG     1      24.198  19.438  16.832  1.00  0.00    -0.289 OA
HETATM    2  C   LIG     1      24.162  19.902  18.001  1.00  0.00     0.172 C 
HETATM    3  C   LIG     1      23.357  19.244  19.033  1.00  0.00     0.052 C 
HETATM    4  C   LIG     1      23.221  19.807  20.238  1.00  0.00    -0.009 C 
HETATM    5  C   LIG     1      23.700  21.230  20.521  1.00  0.00     0.004 C 
HETATM    6  C   LIG     1      22.504  22.157  20.201  1.00  0.00     0.025 C 
HETATM    7  C   LIG     1      24.871  21.615  19.585  1.00  0.00    -0.060 C 
HETATM    8  C   LIG     1      25.972  22.563  20.064  1.00  0.00     0.012 C 
HETATM    9  C   LIG     1      25.498  24.022  20.035  1.00  0.00     0.015 C 
HETATM   10  C   LIG     1      26.534  22.160  21.460  1.00  0.00     0.014 C 
HETATM   11  C   LIG     1      25.669  21.104  22.186  1.00  0.00    -0.001 C 
HETATM   12  C   LIG     1      24.155  21.432  22.016  1.00  0.00     0.035 C 
HETATM   13  C   LIG     1      23.289  20.776  23.137  1.00  0.00     0.124 C 
HETATM   14  C   LIG     1      23.680  21.327  24.546  1.00  0.00     0.045 C 
HETATM   15  C   LIG     1      25.218  21.632  24.723  1.00  0.00     0.001 C 
HETATM   16  C   LIG     1      25.443  23.178  24.592  1.00  0.00     0.019 C 
HETATM   17  C   LIG     1      26.033  20.847  23.678  1.00  0.00     0.002 C 
HETATM   18  C   LIG     1      27.487  20.914  24.139  1.00  0.00     0.009 C 
HETATM   19  C   LIG     1      27.405  21.028  25.673  1.00  0.00     0.047 C 
HETATM   20  C   LIG     1      25.896  21.145  26.059  1.00  0.00     0.128 C 
HETATM   21  C   LIG     1      24.984  21.058  18.366  1.00  0.00     0.059 C 
ENDROOT
BRANCH  20  22
HETATM   22  C   LIG     1      25.328  19.817  26.595  1.00  0.00     0.184 C 
HETATM   23  O   LIG     1      24.490  19.864  27.485  1.00  0.00    -0.292 OA
BRANCH  22  24
HETATM   24  C   LIG     1      25.732  18.446  26.100  1.00  0.00     0.245 C 
BRANCH  24  25
HETATM   25  O   LIG     1      24.742  17.933  25.249  1.00  0.00    -0.393 OA
HETATM   26  H   LIG     1      24.971  16.981  25.084  1.00  0.00     0.209 HD
ENDBRANCH  24  25
ENDBRANCH  22  24
ENDBRANCH  20  22
BRANCH  20  27
HETATM   27  O   LIG     1      25.745  22.123  27.067  1.00  0.00    -0.381 OA
HETATM   28  H   LIG     1      26.579  22.131  27.608  1.00  0.00     0.211 HD
ENDBRANCH  20  27
BRANCH  13  29
HETATM   29  O   LIG     1      23.450  19.379  23.127  1.00  0.00    -0.395 OA
HETATM   30  H   LIG     1      24.234  19.173  23.699  1.00  0.00     0.210 HD
ENDBRANCH  13  29
TORSDOF 5
ENDMDL
MODEL 18
REMARK VINA RESULT:      -3.8     11.825     15.357
REMARK  5 active torsions:
REMARK  status: ('A' for Active; 'I' for Inactive)
REMARK    1  A    between atoms: C_13  and  O_14 
REMARK    2  A    between atoms: C_21  and  C_23 
REMARK    3  A    between atoms: C_21  and  O_22 
REMARK    4  A    between atoms: C_23  and  C_24 
REMARK    5  A    between atoms: C_24  and  O_25 
ROOT
HETATM    1  O   LIG     1      26.623  18.434  27.260  1.00  0.00    -0.289 OA
HETATM    2  C   LIG     1      26.129  19.060  26.286  1.00  0.00     0.172 C 
HETATM    3  C   LIG     1      26.479  20.463  26.055  1.00  0.00     0.052 C 
HETATM    4  C   LIG     1      25.859  21.160  25.098  1.00  0.00    -0.009 C 
HETATM    5  C   LIG     1      24.635  20.611  24.366  1.00  0.00     0.004 C 
HETATM    6  C   LIG     1      23.405  21.070  25.183  1.00  0.00     0.025 C 
HETATM    7  C   LIG     1      24.652  19.063  24.346  1.00  0.00    -0.060 C 
HETATM    8  C   LIG     1      24.061  18.293  23.165  1.00  0.00     0.012 C 
HETATM    9  C   LIG     1      22.528  18.254  23.240  1.00  0.00     0.015 C 
HETATM   10  C   LIG     1      24.563  18.835  21.793  1.00  0.00     0.014 C 
HETATM   11  C   LIG     1      25.286  20.198  21.902  1.00  0.00    -0.001 C 
HETATM   12  C   LIG     1      24.526  21.138  22.884  1.00  0.00     0.035 C 
HETATM   13  C   LIG     1      24.853  22.641  22.619  1.00  0.00     0.124 C 
HETATM   14  C   LIG     1      24.395  23.074  21.189  1.00  0.00     0.045 C 
HETATM   15  C   LIG     1      24.558  21.957  20.087  1.00  0.00     0.001 C 
HETATM   16  C   LIG     1      23.156  21.312  19.813  1.00  0.00     0.019 C 
HETATM   17  C   LIG     1      25.587  20.908  20.550  1.00  0.00     0.002 C 
HETATM   18  C   LIG     1      25.942  20.090  19.311  1.00  0.00     0.009 C 
HETATM   19  C   LIG     1      25.755  21.064  18.132  1.00  0.00     0.047 C 
HETATM   20  C   LIG     1      25.177  22.396  18.707  1.00  0.00     0.128 C 
HETATM   21  C   LIG     1      25.260  18.373  25.328  1.00  0.00     0.059 C 
ENDROOT
BRANCH  20  22
HETATM   22  C   LIG     1      26.255  23.491  18.832  1.00  0.00     0.184 C 
HETATM   23  O   LIG     1      27.362  23.169  19.241  1.00  0.00    -0.292 OA
BRANCH  22  24
HETATM   24  C   LIG     1      26.046  24.948  18.486  1.00  0.00     0.245 C 
BRANCH  24  25
HETATM   25  O   LIG     1      26.111  25.731  19.648  1.00  0.00    -0.393 OA
HETATM   26  H   LIG     1      27.059  25.727  19.944  1.00  0.00     0.209 HD
ENDBRANCH  24  25
ENDBRANCH  22  24
ENDBRANCH  20  22
BRANCH  20  27
HETATM   27  O   LIG     1      24.165  22.878  17.849  1.00  0.00    -0.381 OA
HETATM   28  H   LIG     1      23.467  22.173  17.779  1.00  0.00     0.211 HD
ENDBRANCH  20  27
BRANCH  13  29
HETATM   29  O   LIG     1      26.234  22.874  22.752  1.00  0.00    -0.395 OA
HETATM   30  H   LIG     1      26.343  23.827  23.008  1.00  0.00     0.210 HD
ENDBRANCH  13  29
TORSDOF 5
ENDMDL
MODEL 19
REMARK VINA RESULT:      -3.5      9.997     12.839
REMARK  5 active torsions:
REMARK  status: ('A' for Active; 'I' for Inactive)
REMARK    1  A    between atoms: C_13  and  O_14 
REMARK    2  A    between atoms: C_21  and  C_23 
REMARK    3  A    between atoms: C_21  and  O_22 
REMARK    4  A    between atoms: C_23  and  C_24 
REMARK    5  A    between atoms: C_24  and  O_25 
ROOT
HETATM    1  O   LIG     1      28.590  22.280  17.174  1.00  0.00    -0.289 OA
HETATM    2  C   LIG     1      28.054  22.521  18.287  1.00  0.00     0.172 C 
HETATM    3  C   LIG     1      26.788  21.881  18.652  1.00  0.00     0.052 C 
HETATM    4  C   LIG     1      26.158  22.232  19.777  1.00  0.00    -0.009 C 
HETATM    5  C   LIG     1      26.599  23.439  20.603  1.00  0.00     0.004 C 
HETATM    6  C   LIG     1      25.809  24.648  20.051  1.00  0.00     0.025 C 
HETATM    7  C   LIG     1      28.110  23.720  20.410  1.00  0.00    -0.060 C 
HETATM    8  C   LIG     1      28.947  24.299  21.550  1.00  0.00     0.012 C 
HETATM    9  C   LIG     1      28.708  25.807  21.703  1.00  0.00     0.015 C 
HETATM   10  C   LIG     1      28.729  23.537  22.892  1.00  0.00     0.014 C 
HETATM   11  C   LIG     1      27.511  22.583  22.862  1.00  0.00    -0.001 C 
HETATM   12  C   LIG     1      26.308  23.262  22.143  1.00  0.00     0.035 C 
HETATM   13  C   LIG     1      24.947  22.621  22.558  1.00  0.00     0.124 C 
HETATM   14  C   LIG     1      24.679  22.807  24.086  1.00  0.00     0.045 C 
HETATM   15  C   LIG     1      25.970  22.729  24.988  1.00  0.00     0.001 C 
HETATM   16  C   LIG     1      26.399  24.185  25.380  1.00  0.00     0.019 C 
HETATM   17  C   LIG     1      27.091  21.987  24.237  1.00  0.00     0.002 C 
HETATM   18  C   LIG     1      28.148  21.647  25.285  1.00  0.00     0.009 C 
HETATM   19  C   LIG     1      27.360  21.496  26.600  1.00  0.00     0.047 C 
HETATM   20  C   LIG     1      25.873  21.872  26.306  1.00  0.00     0.128 C 
HETATM   21  C   LIG     1      28.726  23.382  19.263  1.00  0.00     0.059 C 
ENDROOT
BRANCH  20  22
HETATM   22  C   LIG     1      24.975  20.626  26.170  1.00  0.00     0.184 C 
HETATM   23  O   LIG     1      23.828  20.692  26.591  1.00  0.00    -0.292 OA
BRANCH  22  24
HETATM   24  C   LIG     1      25.409  19.316  25.552  1.00  0.00     0.245 C 
BRANCH  24  25
HETATM   25  O   LIG     1      24.868  19.191  24.265  1.00  0.00    -0.393 OA
HETATM   26  H   LIG     1      24.056  19.762  24.237  1.00  0.00     0.209 HD
ENDBRANCH  24  25
ENDBRANCH  22  24
ENDBRANCH  20  22
BRANCH  20  27
HETATM   27  O   LIG     1      25.369  22.659  27.365  1.00  0.00    -0.381 OA
HETATM   28  H   LIG     1      25.894  22.441  28.181  1.00  0.00     0.211 HD
ENDBRANCH  20  27
BRANCH  13  29
HETATM   29  O   LIG     1      24.937  21.248  22.251  1.00  0.00    -0.395 OA
HETATM   30  H   LIG     1      24.439  20.792  22.979  1.00  0.00     0.210 HD
ENDBRANCH  13  29
TORSDOF 5
ENDMDL
