MODEL 1
REMARK VINA RESULT:      -5.5      0.000      0.000
REMARK  7 active torsions:
REMARK  status: ('A' for Active; 'I' for Inactive)
REMARK    1  A    between atoms: C_3  and  O_4 
REMARK    2  A    between atoms: C_14  and  C_15 
REMARK    3  A    between atoms: C_15  and  C_16 
REMARK    4  A    between atoms: C_16  and  C_17 
REMARK    5  A    between atoms: C_17  and  C_18 
REMARK    6  A    between atoms: C_18  and  O_19 
REMARK    7  A    between atoms: C_27  and  O_28 
ROOT
HETATM    1  C   LIG     1      28.414  23.979  28.987  1.00  0.00     0.025 C 
HETATM    2  C   LIG     1      29.939  23.748  28.827  1.00  0.00     0.039 C 
HETATM    3  C   LIG     1      30.429  24.112  27.400  1.00  0.00     0.118 C 
HETATM    4  C   LIG     1      29.514  25.127  26.682  1.00  0.00     0.032 C 
HETATM    5  C   LIG     1      28.962  26.152  27.674  1.00  0.00     0.012 C 
HETATM    6  C   LIG     1      28.040  25.509  28.777  1.00  0.00    -0.034 C 
HETATM    7  C   LIG     1      26.572  25.611  28.284  1.00  0.00     0.016 C 
HETATM    8  C   LIG     1      28.254  26.286  30.127  1.00  0.00    -0.001 C 
HETATM    9  C   LIG     1      27.515  25.615  31.317  1.00  0.00    -0.003 C 
HETATM   10  C   LIG     1      27.416  26.567  32.547  1.00  0.00    -0.002 C 
HETATM   11  C   LIG     1      27.207  26.007  33.942  1.00  0.00     0.006 C 
HETATM   12  C   LIG     1      27.381  27.230  34.855  1.00  0.00     0.006 C 
HETATM   13  C   LIG     1      28.096  28.344  34.030  1.00  0.00    -0.002 C 
HETATM   14  C   LIG     1      28.509  27.642  32.680  1.00  0.00    -0.036 C 
HETATM   15  C   LIG     1      29.918  27.008  32.934  1.00  0.00     0.016 C 
HETATM   16  C   LIG     1      28.567  28.513  31.366  1.00  0.00     0.010 C 
HETATM   17  C   LIG     1      27.969  27.810  30.110  1.00  0.00     0.006 C 
HETATM   18  C   LIG     1      28.106  24.222  31.555  1.00  0.00     0.037 C 
HETATM   19  C   LIG     1      27.850  23.354  30.304  1.00  0.00     0.123 C 
ENDROOT
BRANCH  13  20
HETATM   20  C   LIG     1      27.303  29.701  33.983  1.00  0.00    -0.013 C 
HETATM   21  C   LIG     1      28.274  30.888  34.166  1.00  0.00     0.010 C 
BRANCH  20  22
HETATM   22  C   LIG     1      26.114  29.801  34.982  1.00  0.00     0.015 C 
BRANCH  22  23
HETATM   23  C   LIG     1      26.047  31.157  35.701  1.00  0.00     0.110 C 
BRANCH  23  24
HETATM   24  C   LIG     1      25.904  30.968  37.183  1.00  0.00     0.139 C 
HETATM   25  O   LIG     1      26.200  31.909  37.966  1.00  0.00    -0.650 OA
BRANCH  24  26
HETATM   26  O   LIG     1      25.440  29.764  37.708  1.00  0.00    -0.776 OA
HETATM   27  H   LIG     1      24.534  29.698  38.157  1.00  0.00     0.167 HD
ENDBRANCH  24  26
ENDBRANCH  23  24
ENDBRANCH  22  23
ENDBRANCH  20  22
ENDBRANCH  13  20
BRANCH  19  28
HETATM   28  O   LIG     1      28.373  22.065  30.502  1.00  0.00    -0.395 OA
HETATM   29  H   LIG     1      28.529  21.960  31.478  1.00  0.00     0.210 HD
ENDBRANCH  19  28
BRANCH   3  30
HETATM   30  O   LIG     1      30.584  22.958  26.611  1.00  0.00    -0.396 OA
HETATM   31  H   LIG     1      29.706  22.495  26.581  1.00  0.00     0.210 HD
ENDBRANCH   3  30
TORSDOF 7
ENDMDL
MODEL 2
REMARK VINA RESULT:      -5.5     11.008     13.494
REMARK  7 active torsions:
REMARK  status: ('A' for Active; 'I' for Inactive)
REMARK    1  A    between atoms: C_3  and  O_4 
REMARK    2  A    between atoms: C_14  and  C_15 
REMARK    3  A    between atoms: C_15  and  C_16 
REMARK    4  A    between atoms: C_16  and  C_17 
REMARK    5  A    between atoms: C_17  and  C_18 
REMARK    6  A    between atoms: C_18  and  O_19 
REMARK    7  A    between atoms: C_27  and  O_28 
ROOT
HETATM    1  C   LIG     1      28.322  24.884  18.932  1.00  0.00     0.025 C 
HETATM    2  C   LIG     1      28.157  24.957  17.392  1.00  0.00     0.039 C 
HETATM    3  C   LIG     1      29.412  24.423  16.653  1.00  0.00     0.118 C 
HETATM    4  C   LIG     1      30.244  23.436  17.501  1.00  0.00     0.032 C 
HETATM    5  C   LIG     1      29.330  22.560  18.360  1.00  0.00     0.012 C 
HETATM    6  C   LIG     1      28.505  23.382  19.419  1.00  0.00    -0.034 C 
HETATM    7  C   LIG     1      29.301  23.372  20.751  1.00  0.00     0.016 C 
HETATM    8  C   LIG     1      27.091  22.714  19.583  1.00  0.00    -0.001 C 
HETATM    9  C   LIG     1      26.141  23.555  20.479  1.00  0.00    -0.003 C 
HETATM   10  C   LIG     1      24.902  22.731  20.942  1.00  0.00    -0.002 C 
HETATM   11  C   LIG     1      23.628  23.432  21.379  1.00  0.00     0.006 C 
HETATM   12  C   LIG     1      22.618  22.285  21.538  1.00  0.00     0.006 C 
HETATM   13  C   LIG     1      23.188  21.040  20.790  1.00  0.00    -0.002 C 
HETATM   14  C   LIG     1      24.458  21.576  20.027  1.00  0.00    -0.036 C 
HETATM   15  C   LIG     1      23.944  22.097  18.642  1.00  0.00     0.016 C 
HETATM   16  C   LIG     1      25.665  20.589  19.787  1.00  0.00     0.010 C 
HETATM   17  C   LIG     1      27.067  21.228  20.024  1.00  0.00     0.006 C 
HETATM   18  C   LIG     1      25.874  24.903  19.802  1.00  0.00     0.037 C 
HETATM   19  C   LIG     1      27.206  25.675  19.691  1.00  0.00     0.123 C 
ENDROOT
BRANCH  13  20
HETATM   20  C   LIG     1      23.316  19.764  21.700  1.00  0.00    -0.013 C 
HETATM   21  C   LIG     1      22.743  18.531  20.966  1.00  0.00     0.010 C 
BRANCH  20  22
HETATM   22  C   LIG     1      22.691  19.902  23.118  1.00  0.00     0.015 C 
BRANCH  22  23
HETATM   23  C   LIG     1      23.723  19.759  24.246  1.00  0.00     0.110 C 
BRANCH  23  24
HETATM   24  C   LIG     1      24.752  20.849  24.169  1.00  0.00     0.139 C 
HETATM   25  O   LIG     1      24.477  22.001  24.597  1.00  0.00    -0.650 OA
BRANCH  24  26
HETATM   26  O   LIG     1      26.015  20.602  23.636  1.00  0.00    -0.776 OA
HETATM   27  H   LIG     1      26.569  21.345  23.225  1.00  0.00     0.167 HD
ENDBRANCH  24  26
ENDBRANCH  23  24
ENDBRANCH  22  23
ENDBRANCH  20  22
ENDBRANCH  13  20
BRANCH  19  28
HETATM   28  O   LIG     1      26.986  26.923  19.083  1.00  0.00    -0.395 OA
HETATM   29  H   LIG     1      26.788  26.749  18.125  1.00  0.00     0.210 HD
ENDBRANCH  19  28
BRANCH   3  30
HETATM   30  O   LIG     1      30.225  25.481  16.209  1.00  0.00    -0.396 OA
HETATM   31  H   LIG     1      30.255  26.160  16.933  1.00  0.00     0.210 HD
ENDBRANCH   3  30
TORSDOF 7
ENDMDL
MODEL 3
REMARK VINA RESULT:      -5.4     12.512     15.477
REMARK  7 active torsions:
REMARK  status: ('A' for Active; 'I' for Inactive)
REMARK    1  A    between atoms: C_3  and  O_4 
REMARK    2  A    between atoms: C_14  and  C_15 
REMARK    3  A    between atoms: C_15  and  C_16 
REMARK    4  A    between atoms: C_16  and  C_17 
REMARK    5  A    between atoms: C_17  and  C_18 
REMARK    6  A    between atoms: C_18  and  O_19 
REMARK    7  A    between atoms: C_27  and  O_28 
ROOT
HETATM    1  C   LIG     1      28.145  19.843  15.850  1.00  0.00     0.025 C 
HETATM    2  C   LIG     1      28.226  20.924  14.741  1.00  0.00     0.039 C 
HETATM    3  C   LIG     1      27.679  20.400  13.386  1.00  0.00     0.118 C 
HETATM    4  C   LIG     1      26.679  19.235  13.543  1.00  0.00     0.032 C 
HETATM    5  C   LIG     1      25.810  19.432  14.788  1.00  0.00     0.012 C 
HETATM    6  C   LIG     1      26.639  19.417  16.126  1.00  0.00    -0.034 C 
HETATM    7  C   LIG     1      26.614  17.968  16.682  1.00  0.00     0.016 C 
HETATM    8  C   LIG     1      25.987  20.435  17.132  1.00  0.00    -0.001 C 
HETATM    9  C   LIG     1      26.837  20.617  18.420  1.00  0.00    -0.003 C 
HETATM   10  C   LIG     1      26.027  21.316  19.553  1.00  0.00    -0.002 C 
HETATM   11  C   LIG     1      26.742  22.038  20.681  1.00  0.00     0.006 C 
HETATM   12  C   LIG     1      25.607  22.747  21.435  1.00  0.00     0.006 C 
HETATM   13  C   LIG     1      24.358  22.777  20.501  1.00  0.00    -0.002 C 
HETATM   14  C   LIG     1      24.881  22.244  19.114  1.00  0.00    -0.036 C 
HETATM   15  C   LIG     1      25.414  23.498  18.341  1.00  0.00     0.016 C 
HETATM   16  C   LIG     1      23.879  21.456  18.183  1.00  0.00     0.010 C 
HETATM   17  C   LIG     1      24.500  20.200  17.501  1.00  0.00     0.006 C 
HETATM   18  C   LIG     1      28.191  21.229  18.047  1.00  0.00     0.037 C 
HETATM   19  C   LIG     1      28.947  20.241  17.132  1.00  0.00     0.123 C 
ENDROOT
BRANCH  13  20
HETATM   20  C   LIG     1      23.076  22.130  21.144  1.00  0.00    -0.013 C 
HETATM   21  C   LIG     1      21.952  23.182  21.256  1.00  0.00     0.010 C 
BRANCH  20  22
HETATM   22  C   LIG     1      23.311  21.424  22.510  1.00  0.00     0.015 C 
BRANCH  22  23
HETATM   23  C   LIG     1      22.841  19.962  22.519  1.00  0.00     0.110 C 
BRANCH  23  24
HETATM   24  C   LIG     1      23.518  19.177  21.434  1.00  0.00     0.139 C 
HETATM   25  O   LIG     1      24.741  18.893  21.536  1.00  0.00    -0.650 OA
BRANCH  24  26
HETATM   26  O   LIG     1      22.809  18.749  20.314  1.00  0.00    -0.776 OA
HETATM   27  H   LIG     1      21.828  18.969  20.194  1.00  0.00     0.167 HD
ENDBRANCH  24  26
ENDBRANCH  23  24
ENDBRANCH  22  23
ENDBRANCH  20  22
ENDBRANCH  13  20
BRANCH  19  28
HETATM   28  O   LIG     1      30.199  20.775  16.784  1.00  0.00    -0.395 OA
HETATM   29  H   LIG     1      30.430  20.416  15.887  1.00  0.00     0.210 HD
ENDBRANCH  19  28
BRANCH   3  30
HETATM   30  O   LIG     1      28.729  20.024  12.530  1.00  0.00    -0.396 OA
HETATM   31  H   LIG     1      29.405  20.751  12.547  1.00  0.00     0.210 HD
ENDBRANCH   3  30
TORSDOF 7
ENDMDL
MODEL 4
REMARK VINA RESULT:      -5.3      7.997     11.128
REMARK  7 active torsions:
REMARK  status: ('A' for Active; 'I' for Inactive)
REMARK    1  A    between atoms: C_3  and  O_4 
REMARK    2  A    between atoms: C_14  and  C_15 
REMARK    3  A    between atoms: C_15  and  C_16 
REMARK    4  A    between atoms: C_16  and  C_17 
REMARK    5  A    between atoms: C_17  and  C_18 
REMARK    6  A    between atoms: C_18  and  O_19 
REMARK    7  A    between atoms: C_27  and  O_28 
ROOT
HETATM    1  C   LIG     1      22.938  20.455  21.625  1.00  0.00     0.025 C 
HETATM    2  C   LIG     1      23.564  19.185  20.994  1.00  0.00     0.039 C 
HETATM    3  C   LIG     1      23.092  18.976  19.531  1.00  0.00     0.118 C 
HETATM    4  C   LIG     1      22.636  20.283  18.847  1.00  0.00     0.032 C 
HETATM    5  C   LIG     1      23.503  21.460  19.297  1.00  0.00     0.012 C 
HETATM    6  C   LIG     1      23.379  21.763  20.837  1.00  0.00    -0.034 C 
HETATM    7  C   LIG     1      22.293  22.857  21.018  1.00  0.00     0.016 C 
HETATM    8  C   LIG     1      24.779  22.243  21.369  1.00  0.00    -0.001 C 
HETATM    9  C   LIG     1      24.800  22.402  22.914  1.00  0.00    -0.003 C 
HETATM   10  C   LIG     1      26.037  23.219  23.395  1.00  0.00    -0.002 C 
HETATM   11  C   LIG     1      26.544  23.086  24.819  1.00  0.00     0.006 C 
HETATM   12  C   LIG     1      27.865  23.870  24.810  1.00  0.00     0.006 C 
HETATM   13  C   LIG     1      28.296  24.060  23.323  1.00  0.00    -0.002 C 
HETATM   14  C   LIG     1      27.284  23.181  22.495  1.00  0.00    -0.036 C 
HETATM   15  C   LIG     1      27.909  21.745  22.430  1.00  0.00     0.016 C 
HETATM   16  C   LIG     1      26.906  23.641  21.034  1.00  0.00     0.010 C 
HETATM   17  C   LIG     1      25.392  23.497  20.693  1.00  0.00     0.006 C 
HETATM   18  C   LIG     1      24.568  21.033  23.563  1.00  0.00     0.037 C 
HETATM   19  C   LIG     1      23.164  20.529  23.170  1.00  0.00     0.123 C 
ENDROOT
BRANCH  13  20
HETATM   20  C   LIG     1      28.521  25.563  22.920  1.00  0.00    -0.013 C 
HETATM   21  C   LIG     1      29.736  25.681  21.972  1.00  0.00     0.010 C 
BRANCH  20  22
HETATM   22  C   LIG     1      28.656  26.550  24.114  1.00  0.00     0.015 C 
BRANCH  22  23
HETATM   23  C   LIG     1      29.999  27.296  24.130  1.00  0.00     0.110 C 
BRANCH  23  24
HETATM   24  C   LIG     1      29.957  28.450  25.087  1.00  0.00     0.139 C 
HETATM   25  O   LIG     1      29.884  29.628  24.646  1.00  0.00    -0.650 OA
BRANCH  24  26
HETATM   26  O   LIG     1      29.991  28.239  26.464  1.00  0.00    -0.776 OA
HETATM   27  H   LIG     1      29.974  27.304  26.855  1.00  0.00     0.167 HD
ENDBRANCH  24  26
ENDBRANCH  23  24
ENDBRANCH  22  23
ENDBRANCH  20  22
ENDBRANCH  13  20
BRANCH  19  28
HETATM   28  O   LIG     1      22.922  19.278  23.764  1.00  0.00    -0.395 OA
HETATM   29  H   LIG     1      23.694  19.083  24.358  1.00  0.00     0.210 HD
ENDBRANCH  19  28
BRANCH   3  30
HETATM   30  O   LIG     1      22.071  18.013  19.463  1.00  0.00    -0.396 OA
HETATM   31  H   LIG     1      22.495  17.119  19.554  1.00  0.00     0.210 HD
ENDBRANCH   3  30
TORSDOF 7
ENDMDL
MODEL 5
REMARK VINA RESULT:      -5.2      6.828      9.477
REMARK  7 active torsions:
REMARK  status: ('A' for Active; 'I' for Inactive)
REMARK    1  A    between atoms: C_3  and  O_4 
REMARK    2  A    between atoms: C_14  and  C_15 
REMARK    3  A    between atoms: C_15  and  C_16 
REMARK    4  A    between atoms: C_16  and  C_17 
REMARK    5  A    between atoms: C_17  and  C_18 
REMARK    6  A    between atoms: C_18  and  O_19 
REMARK    7  A    between atoms: C_27  and  O_28 
ROOT
HETATM    1  C   LIG     1      22.904  20.094  21.888  1.00  0.00     0.025 C 
HETATM    2  C   LIG     1      23.809  18.948  21.366  1.00  0.00     0.039 C 
HETATM    3  C   LIG     1      24.077  19.074  19.844  1.00  0.00     0.118 C 
HETATM    4  C   LIG     1      23.928  20.518  19.317  1.00  0.00     0.032 C 
HETATM    5  C   LIG     1      24.434  21.525  20.352  1.00  0.00     0.012 C 
HETATM    6  C   LIG     1      23.598  21.509  21.687  1.00  0.00    -0.034 C 
HETATM    7  C   LIG     1      22.501  22.602  21.571  1.00  0.00     0.016 C 
HETATM    8  C   LIG     1      24.569  21.788  22.891  1.00  0.00    -0.001 C 
HETATM    9  C   LIG     1      23.866  21.621  24.267  1.00  0.00    -0.003 C 
HETATM   10  C   LIG     1      24.701  22.249  25.423  1.00  0.00    -0.002 C 
HETATM   11  C   LIG     1      24.497  21.796  26.857  1.00  0.00     0.006 C 
HETATM   12  C   LIG     1      25.635  22.488  27.622  1.00  0.00     0.006 C 
HETATM   13  C   LIG     1      26.696  22.957  26.579  1.00  0.00    -0.002 C 
HETATM   14  C   LIG     1      26.224  22.327  25.214  1.00  0.00    -0.036 C 
HETATM   15  C   LIG     1      26.873  20.903  25.145  1.00  0.00     0.016 C 
HETATM   16  C   LIG     1      26.542  23.101  23.877  1.00  0.00     0.010 C 
HETATM   17  C   LIG     1      25.366  23.117  22.855  1.00  0.00     0.006 C 
HETATM   18  C   LIG     1      23.425  20.164  24.432  1.00  0.00     0.037 C 
HETATM   19  C   LIG     1      22.385  19.832  23.340  1.00  0.00     0.123 C 
ENDROOT
BRANCH  13  20
HETATM   20  C   LIG     1      27.012  24.496  26.651  1.00  0.00    -0.013 C 
HETATM   21  C   LIG     1      28.529  24.733  26.479  1.00  0.00     0.010 C 
BRANCH  20  22
HETATM   22  C   LIG     1      26.481  25.216  27.923  1.00  0.00     0.015 C 
BRANCH  22  23
HETATM   23  C   LIG     1      27.549  25.368  29.017  1.00  0.00     0.110 C 
BRANCH  23  24
HETATM   24  C   LIG     1      27.189  26.475  29.964  1.00  0.00     0.139 C 
HETATM   25  O   LIG     1      26.852  26.202  31.147  1.00  0.00    -0.650 OA
BRANCH  24  26
HETATM   26  O   LIG     1      27.228  27.806  29.556  1.00  0.00    -0.776 OA
HETATM   27  H   LIG     1      27.045  28.563  30.204  1.00  0.00     0.167 HD
ENDBRANCH  24  26
ENDBRANCH  23  24
ENDBRANCH  22  23
ENDBRANCH  20  22
ENDBRANCH  13  20
BRANCH  19  28
HETATM   28  O   LIG     1      21.955  18.502  23.478  1.00  0.00    -0.395 OA
HETATM   29  H   LIG     1      21.205  18.504  24.129  1.00  0.00     0.210 HD
ENDBRANCH  19  28
BRANCH   3  30
HETATM   30  O   LIG     1      23.249  18.206  19.112  1.00  0.00    -0.396 OA
HETATM   31  H   LIG     1      23.783  17.399  18.889  1.00  0.00     0.210 HD
ENDBRANCH   3  30
TORSDOF 7
ENDMDL
MODEL 6
REMARK VINA RESULT:      -5.1      9.074     13.266
REMARK  7 active torsions:
REMARK  status: ('A' for Active; 'I' for Inactive)
REMARK    1  A    between atoms: C_3  and  O_4 
REMARK    2  A    between atoms: C_14  and  C_15 
REMARK    3  A    between atoms: C_15  and  C_16 
REMARK    4  A    between atoms: C_16  and  C_17 
REMARK    5  A    between atoms: C_17  and  C_18 
REMARK    6  A    between atoms: C_18  and  O_19 
REMARK    7  A    between atoms: C_27  and  O_28 
ROOT
HETATM    1  C   LIG     1      23.764  19.719  25.086  1.00  0.00     0.025 C 
HETATM    2  C   LIG     1      22.697  20.564  25.829  1.00  0.00     0.039 C 
HETATM    3  C   LIG     1      23.285  21.256  27.086  1.00  0.00     0.118 C 
HETATM    4  C   LIG     1      24.814  21.461  27.010  1.00  0.00     0.032 C 
HETATM    5  C   LIG     1      25.244  21.796  25.581  1.00  0.00     0.012 C 
HETATM    6  C   LIG     1      24.955  20.631  24.561  1.00  0.00    -0.034 C 
HETATM    7  C   LIG     1      26.243  19.772  24.448  1.00  0.00     0.016 C 
HETATM    8  C   LIG     1      24.556  21.262  23.178  1.00  0.00    -0.001 C 
HETATM    9  C   LIG     1      24.086  20.191  22.155  1.00  0.00    -0.003 C 
HETATM   10  C   LIG     1      24.052  20.754  20.702  1.00  0.00    -0.002 C 
HETATM   11  C   LIG     1      23.184  20.103  19.641  1.00  0.00     0.006 C 
HETATM   12  C   LIG     1      23.275  21.071  18.452  1.00  0.00     0.006 C 
HETATM   13  C   LIG     1      23.819  22.433  18.985  1.00  0.00    -0.002 C 
HETATM   14  C   LIG     1      23.839  22.271  20.552  1.00  0.00    -0.036 C 
HETATM   15  C   LIG     1      22.421  22.710  21.052  1.00  0.00     0.016 C 
HETATM   16  C   LIG     1      24.937  23.050  21.376  1.00  0.00     0.010 C 
HETATM   17  C   LIG     1      25.587  22.215  22.519  1.00  0.00     0.006 C 
HETATM   18  C   LIG     1      22.810  19.523  22.678  1.00  0.00     0.037 C 
HETATM   19  C   LIG     1      23.138  18.790  23.995  1.00  0.00     0.123 C 
ENDROOT
BRANCH  13  20
HETATM   20  C   LIG     1      25.114  22.927  18.242  1.00  0.00    -0.013 C 
HETATM   21  C   LIG     1      26.273  21.935  18.485  1.00  0.00     0.010 C 
BRANCH  20  22
HETATM   22  C   LIG     1      25.551  24.381  18.581  1.00  0.00     0.015 C 
BRANCH  22  23
HETATM   23  C   LIG     1      27.060  24.511  18.832  1.00  0.00     0.110 C 
BRANCH  23  24
HETATM   24  C   LIG     1      27.366  25.757  19.611  1.00  0.00     0.139 C 
HETATM   25  O   LIG     1      27.684  25.674  20.827  1.00  0.00    -0.650 OA
BRANCH  24  26
HETATM   26  O   LIG     1      27.310  27.010  19.004  1.00  0.00    -0.776 OA
HETATM   27  H   LIG     1      26.425  27.442  18.767  1.00  0.00     0.167 HD
ENDBRANCH  24  26
ENDBRANCH  23  24
ENDBRANCH  22  23
ENDBRANCH  20  22
ENDBRANCH  13  20
BRANCH  19  28
HETATM   28  O   LIG     1      21.985  18.157  24.490  1.00  0.00    -0.395 OA
HETATM   29  H   LIG     1      21.241  18.814  24.425  1.00  0.00     0.210 HD
ENDBRANCH  19  28
BRANCH   3  30
HETATM   30  O   LIG     1      22.950  20.549  28.254  1.00  0.00    -0.396 OA
HETATM   31  H   LIG     1      22.210  21.040  28.700  1.00  0.00     0.210 HD
ENDBRANCH   3  30
TORSDOF 7
ENDMDL
MODEL 7
REMARK VINA RESULT:      -5.1      9.278     12.135
REMARK  7 active torsions:
REMARK  status: ('A' for Active; 'I' for Inactive)
REMARK    1  A    between atoms: C_3  and  O_4 
REMARK    2  A    between atoms: C_14  and  C_15 
REMARK    3  A    between atoms: C_15  and  C_16 
REMARK    4  A    between atoms: C_16  and  C_17 
REMARK    5  A    between atoms: C_17  and  C_18 
REMARK    6  A    between atoms: C_18  and  O_19 
REMARK    7  A    between atoms: C_27  and  O_28 
ROOT
HETATM    1  C   LIG     1      23.946  20.273  19.161  1.00  0.00     0.025 C 
HETATM    2  C   LIG     1      25.425  19.852  18.955  1.00  0.00     0.039 C 
HETATM    3  C   LIG     1      26.246  20.964  18.250  1.00  0.00     0.118 C 
HETATM    4  C   LIG     1      25.650  22.375  18.440  1.00  0.00     0.032 C 
HETATM    5  C   LIG     1      25.051  22.524  19.840  1.00  0.00     0.012 C 
HETATM    6  C   LIG     1      23.840  21.552  20.099  1.00  0.00    -0.034 C 
HETATM    7  C   LIG     1      22.534  22.321  19.763  1.00  0.00     0.016 C 
HETATM    8  C   LIG     1      23.874  21.097  21.604  1.00  0.00    -0.001 C 
HETATM    9  C   LIG     1      22.818  19.999  21.912  1.00  0.00    -0.003 C 
HETATM   10  C   LIG     1      22.597  19.823  23.445  1.00  0.00    -0.002 C 
HETATM   11  C   LIG     1      22.028  18.530  23.999  1.00  0.00     0.006 C 
HETATM   12  C   LIG     1      22.176  18.690  25.520  1.00  0.00     0.006 C 
HETATM   13  C   LIG     1      23.194  19.843  25.782  1.00  0.00    -0.002 C 
HETATM   14  C   LIG     1      23.777  20.196  24.361  1.00  0.00    -0.036 C 
HETATM   15  C   LIG     1      25.001  19.243  24.146  1.00  0.00     0.016 C 
HETATM   16  C   LIG     1      24.227  21.681  24.078  1.00  0.00     0.010 C 
HETATM   17  C   LIG     1      23.811  22.216  22.675  1.00  0.00     0.006 C 
HETATM   18  C   LIG     1      23.149  18.742  21.102  1.00  0.00     0.037 C 
HETATM   19  C   LIG     1      23.040  19.076  19.599  1.00  0.00     0.123 C 
ENDROOT
BRANCH  13  20
HETATM   20  C   LIG     1      22.623  20.994  26.689  1.00  0.00    -0.013 C 
HETATM   21  C   LIG     1      23.780  21.736  27.393  1.00  0.00     0.010 C 
BRANCH  20  22
HETATM   22  C   LIG     1      21.547  20.545  27.719  1.00  0.00     0.015 C 
BRANCH  22  23
HETATM   23  C   LIG     1      20.539  21.654  28.056  1.00  0.00     0.110 C 
BRANCH  23  24
HETATM   24  C   LIG     1      19.567  21.191  29.101  1.00  0.00     0.139 C 
HETATM   25  O   LIG     1      19.000  20.073  28.979  1.00  0.00    -0.650 OA
BRANCH  24  26
HETATM   26  O   LIG     1      19.285  21.980  30.214  1.00  0.00    -0.776 OA
HETATM   27  H   LIG     1      18.335  22.113  30.541  1.00  0.00     0.167 HD
ENDBRANCH  24  26
ENDBRANCH  23  24
ENDBRANCH  22  23
ENDBRANCH  20  22
ENDBRANCH  13  20
BRANCH  19  28
HETATM   28  O   LIG     1      23.328  17.934  18.833  1.00  0.00    -0.395 OA
HETATM   29  H   LIG     1      23.564  18.247  17.920  1.00  0.00     0.210 HD
ENDBRANCH  19  28
BRANCH   3  30
HETATM   30  O   LIG     1      26.401  20.685  16.881  1.00  0.00    -0.396 OA
HETATM   31  H   LIG     1      27.354  20.453  16.727  1.00  0.00     0.210 HD
ENDBRANCH   3  30
TORSDOF 7
ENDMDL
MODEL 8
REMARK VINA RESULT:      -5.0      8.492     12.288
REMARK  7 active torsions:
REMARK  status: ('A' for Active; 'I' for Inactive)
REMARK    1  A    between atoms: C_3  and  O_4 
REMARK    2  A    between atoms: C_14  and  C_15 
REMARK    3  A    between atoms: C_15  and  C_16 
REMARK    4  A    between atoms: C_16  and  C_17 
REMARK    5  A    between atoms: C_17  and  C_18 
REMARK    6  A    between atoms: C_18  and  O_19 
REMARK    7  A    between atoms: C_27  and  O_28 
ROOT
HETATM    1  C   LIG     1      24.736  21.153  17.853  1.00  0.00     0.025 C 
HETATM    2  C   LIG     1      25.204  19.759  17.359  1.00  0.00     0.039 C 
HETATM    3  C   LIG     1      26.491  19.856  16.498  1.00  0.00     0.118 C 
HETATM    4  C   LIG     1      27.328  21.118  16.795  1.00  0.00     0.032 C 
HETATM    5  C   LIG     1      27.279  21.462  18.285  1.00  0.00     0.012 C 
HETATM    6  C   LIG     1      25.832  21.829  18.785  1.00  0.00    -0.034 C 
HETATM    7  C   LIG     1      25.682  23.372  18.710  1.00  0.00     0.016 C 
HETATM    8  C   LIG     1      25.660  21.300  20.256  1.00  0.00    -0.001 C 
HETATM    9  C   LIG     1      24.204  21.462  20.775  1.00  0.00    -0.003 C 
HETATM   10  C   LIG     1      24.119  21.294  22.321  1.00  0.00    -0.002 C 
HETATM   11  C   LIG     1      22.809  20.915  22.986  1.00  0.00     0.006 C 
HETATM   12  C   LIG     1      23.205  20.648  24.446  1.00  0.00     0.006 C 
HETATM   13  C   LIG     1      24.753  20.457  24.493  1.00  0.00    -0.002 C 
HETATM   14  C   LIG     1      25.200  20.419  22.983  1.00  0.00    -0.036 C 
HETATM   15  C   LIG     1      25.088  18.923  22.534  1.00  0.00     0.016 C 
HETATM   16  C   LIG     1      26.633  20.962  22.607  1.00  0.00     0.010 C 
HETATM   17  C   LIG     1      26.666  21.827  21.311  1.00  0.00     0.006 C 
HETATM   18  C   LIG     1      23.268  20.599  19.923  1.00  0.00     0.037 C 
HETATM   19  C   LIG     1      23.300  21.118  18.469  1.00  0.00     0.123 C 
ENDROOT
BRANCH  13  20
HETATM   20  C   LIG     1      25.477  21.435  25.489  1.00  0.00    -0.013 C 
HETATM   21  C   LIG     1      25.335  20.917  26.937  1.00  0.00     0.010 C 
BRANCH  20  22
HETATM   22  C   LIG     1      25.033  22.922  25.388  1.00  0.00     0.015 C 
BRANCH  22  23
HETATM   23  C   LIG     1      26.183  23.869  25.013  1.00  0.00     0.110 C 
BRANCH  23  24
HETATM   24  C   LIG     1      26.689  24.600  26.222  1.00  0.00     0.139 C 
HETATM   25  O   LIG     1      27.922  24.822  26.350  1.00  0.00    -0.650 OA
BRANCH  24  26
HETATM   26  O   LIG     1      25.810  25.047  27.206  1.00  0.00    -0.776 OA
HETATM   27  H   LIG     1      25.916  24.769  28.174  1.00  0.00     0.167 HD
ENDBRANCH  24  26
ENDBRANCH  23  24
ENDBRANCH  22  23
ENDBRANCH  20  22
ENDBRANCH  13  20
BRANCH  19  28
HETATM   28  O   LIG     1      22.438  20.349  17.668  1.00  0.00    -0.395 OA
HETATM   29  H   LIG     1      22.748  19.407  17.728  1.00  0.00     0.210 HD
ENDBRANCH  19  28
BRANCH   3  30
HETATM   30  O   LIG     1      26.187  19.788  15.127  1.00  0.00    -0.396 OA
HETATM   31  H   LIG     1      25.990  18.839  14.910  1.00  0.00     0.210 HD
ENDBRANCH   3  30
TORSDOF 7
ENDMDL
MODEL 9
REMARK VINA RESULT:      -5.0     12.342     15.272
REMARK  7 active torsions:
REMARK  status: ('A' for Active; 'I' for Inactive)
REMARK    1  A    between atoms: C_3  and  O_4 
REMARK    2  A    between atoms: C_14  and  C_15 
REMARK    3  A    between atoms: C_15  and  C_16 
REMARK    4  A    between atoms: C_16  and  C_17 
REMARK    5  A    between atoms: C_17  and  C_18 
REMARK    6  A    between atoms: C_18  and  O_19 
REMARK    7  A    between atoms: C_27  and  O_28 
ROOT
HETATM    1  C   LIG     1      23.245  20.898  20.385  1.00  0.00     0.025 C 
HETATM    2  C   LIG     1      23.600  20.279  21.762  1.00  0.00     0.039 C 
HETATM    3  C   LIG     1      23.599  18.729  21.715  1.00  0.00     0.118 C 
HETATM    4  C   LIG     1      23.842  18.163  20.299  1.00  0.00     0.032 C 
HETATM    5  C   LIG     1      24.841  19.033  19.534  1.00  0.00     0.012 C 
HETATM    6  C   LIG     1      24.319  20.497  19.284  1.00  0.00    -0.034 C 
HETATM    7  C   LIG     1      23.648  20.528  17.885  1.00  0.00     0.016 C 
HETATM    8  C   LIG     1      25.539  21.486  19.364  1.00  0.00    -0.001 C 
HETATM    9  C   LIG     1      25.097  22.974  19.301  1.00  0.00    -0.003 C 
HETATM   10  C   LIG     1      26.298  23.922  19.005  1.00  0.00    -0.002 C 
HETATM   11  C   LIG     1      26.233  25.391  19.382  1.00  0.00     0.006 C 
HETATM   12  C   LIG     1      27.661  25.896  19.123  1.00  0.00     0.006 C 
HETATM   13  C   LIG     1      28.597  24.652  19.026  1.00  0.00    -0.002 C 
HETATM   14  C   LIG     1      27.690  23.433  19.442  1.00  0.00    -0.036 C 
HETATM   15  C   LIG     1      27.803  23.321  21.001  1.00  0.00     0.016 C 
HETATM   16  C   LIG     1      27.987  22.021  18.804  1.00  0.00     0.010 C 
HETATM   17  C   LIG     1      26.710  21.233  18.380  1.00  0.00     0.006 C 
HETATM   18  C   LIG     1      24.236  23.295  20.527  1.00  0.00     0.037 C 
HETATM   19  C   LIG     1      22.957  22.432  20.475  1.00  0.00     0.123 C 
ENDROOT
BRANCH  13  20
HETATM   20  C   LIG     1      29.415  24.584  17.684  1.00  0.00    -0.013 C 
HETATM   21  C   LIG     1      30.684  25.457  17.793  1.00  0.00     0.010 C 
BRANCH  20  22
HETATM   22  C   LIG     1      28.607  24.941  16.404  1.00  0.00     0.015 C 
BRANCH  22  23
HETATM   23  C   LIG     1      29.254  26.064  15.580  1.00  0.00     0.110 C 
BRANCH  23  24
HETATM   24  C   LIG     1      29.606  25.581  14.203  1.00  0.00     0.139 C 
HETATM   25  O   LIG     1      29.875  24.365  14.015  1.00  0.00    -0.650 OA
BRANCH  24  26
HETATM   26  O   LIG     1      29.632  26.460  13.123  1.00  0.00    -0.776 OA
HETATM   27  H   LIG     1      29.179  26.232  12.245  1.00  0.00     0.167 HD
ENDBRANCH  24  26
ENDBRANCH  23  24
ENDBRANCH  22  23
ENDBRANCH  20  22
ENDBRANCH  13  20
BRANCH  19  28
HETATM   28  O   LIG     1      22.143  22.716  21.584  1.00  0.00    -0.395 OA
HETATM   29  H   LIG     1      21.883  23.673  21.517  1.00  0.00     0.210 HD
ENDBRANCH  19  28
BRANCH   3  30
HETATM   30  O   LIG     1      22.405  18.209  22.244  1.00  0.00    -0.396 OA
HETATM   31  H   LIG     1      21.689  18.353  21.570  1.00  0.00     0.210 HD
ENDBRANCH   3  30
TORSDOF 7
ENDMDL
MODEL 10
REMARK VINA RESULT:      -5.0      2.464      8.449
REMARK  7 active torsions:
REMARK  status: ('A' for Active; 'I' for Inactive)
REMARK    1  A    between atoms: C_3  and  O_4 
REMARK    2  A    between atoms: C_14  and  C_15 
REMARK    3  A    between atoms: C_15  and  C_16 
REMARK    4  A    between atoms: C_16  and  C_17 
REMARK    5  A    between atoms: C_17  and  C_18 
REMARK    6  A    between atoms: C_18  and  O_19 
REMARK    7  A    between atoms: C_27  and  O_28 
ROOT
HETATM    1  C   LIG     1      28.689  29.959  34.943  1.00  0.00     0.025 C 
HETATM    2  C   LIG     1      29.902  29.432  35.751  1.00  0.00     0.039 C 
HETATM    3  C   LIG     1      29.508  29.059  37.204  1.00  0.00     0.118 C 
HETATM    4  C   LIG     1      28.009  28.721  37.361  1.00  0.00     0.032 C 
HETATM    5  C   LIG     1      27.490  27.981  36.126  1.00  0.00     0.012 C 
HETATM    6  C   LIG     1      27.559  28.848  34.814  1.00  0.00    -0.034 C 
HETATM    7  C   LIG     1      26.183  29.541  34.631  1.00  0.00     0.016 C 
HETATM    8  C   LIG     1      27.897  27.902  33.604  1.00  0.00    -0.001 C 
HETATM    9  C   LIG     1      28.156  28.692  32.292  1.00  0.00    -0.003 C 
HETATM   10  C   LIG     1      28.119  27.763  31.041  1.00  0.00    -0.002 C 
HETATM   11  C   LIG     1      28.813  28.172  29.755  1.00  0.00     0.006 C 
HETATM   12  C   LIG     1      28.719  26.916  28.875  1.00  0.00     0.006 C 
HETATM   13  C   LIG     1      28.374  25.709  29.802  1.00  0.00    -0.002 C 
HETATM   14  C   LIG     1      28.478  26.283  31.266  1.00  0.00    -0.036 C 
HETATM   15  C   LIG     1      29.974  26.109  31.695  1.00  0.00     0.016 C 
HETATM   16  C   LIG     1      27.548  25.670  32.384  1.00  0.00     0.010 C 
HETATM   17  C   LIG     1      26.919  26.729  33.339  1.00  0.00     0.006 C 
HETATM   18  C   LIG     1      29.396  29.574  32.473  1.00  0.00     0.037 C 
HETATM   19  C   LIG     1      29.112  30.607  33.584  1.00  0.00     0.123 C 
ENDROOT
BRANCH  13  20
HETATM   20  C   LIG     1      27.077  24.933  29.367  1.00  0.00    -0.013 C 
HETATM   21  C   LIG     1      27.312  23.410  29.476  1.00  0.00     0.010 C 
BRANCH  20  22
HETATM   22  C   LIG     1      26.527  25.308  27.962  1.00  0.00     0.015 C 
BRANCH  22  23
HETATM   23  C   LIG     1      26.952  24.319  26.867  1.00  0.00     0.110 C 
BRANCH  23  24
HETATM   24  C   LIG     1      25.752  23.705  26.207  1.00  0.00     0.139 C 
HETATM   25  O   LIG     1      25.704  23.615  24.952  1.00  0.00    -0.650 OA
BRANCH  24  26
HETATM   26  O   LIG     1      24.688  23.223  26.966  1.00  0.00    -0.776 OA
HETATM   27  H   LIG     1      24.015  22.573  26.579  1.00  0.00     0.167 HD
ENDBRANCH  24  26
ENDBRANCH  23  24
ENDBRANCH  22  23
ENDBRANCH  20  22
ENDBRANCH  13  20
BRANCH  19  28
HETATM   28  O   LIG     1      30.231  31.438  33.762  1.00  0.00    -0.395 OA
HETATM   29  H   LIG     1      30.843  30.972  34.390  1.00  0.00     0.210 HD
ENDBRANCH  19  28
BRANCH   3  30
HETATM   30  O   LIG     1      29.870  30.078  38.103  1.00  0.00    -0.396 OA
HETATM   31  H   LIG     1      29.797  29.708  39.021  1.00  0.00     0.210 HD
ENDBRANCH   3  30
TORSDOF 7
ENDMDL
MODEL 11
REMARK VINA RESULT:      -5.0      6.859     10.954
REMARK  7 active torsions:
REMARK  status: ('A' for Active; 'I' for Inactive)
REMARK    1  A    between atoms: C_3  and  O_4 
REMARK    2  A    between atoms: C_14  and  C_15 
REMARK    3  A    between atoms: C_15  and  C_16 
REMARK    4  A    between atoms: C_16  and  C_17 
REMARK    5  A    between atoms: C_17  and  C_18 
REMARK    6  A    between atoms: C_18  and  O_19 
REMARK    7  A    between atoms: C_27  and  O_28 
ROOT
HETATM    1  C   LIG     1      27.000  23.499  17.908  1.00  0.00     0.025 C 
HETATM    2  C   LIG     1      28.310  22.829  17.420  1.00  0.00     0.039 C 
HETATM    3  C   LIG     1      29.126  23.767  16.493  1.00  0.00     0.118 C 
HETATM    4  C   LIG     1      28.820  25.264  16.720  1.00  0.00     0.032 C 
HETATM    5  C   LIG     1      28.573  25.545  18.203  1.00  0.00     0.012 C 
HETATM    6  C   LIG     1      27.307  24.799  18.769  1.00  0.00    -0.034 C 
HETATM    7  C   LIG     1      26.101  25.771  18.671  1.00  0.00     0.016 C 
HETATM    8  C   LIG     1      27.594  24.381  20.257  1.00  0.00    -0.001 C 
HETATM    9  C   LIG     1      26.468  23.487  20.847  1.00  0.00    -0.003 C 
HETATM   10  C   LIG     1      26.562  23.386  22.399  1.00  0.00    -0.002 C 
HETATM   11  C   LIG     1      25.926  22.223  23.137  1.00  0.00     0.006 C 
HETATM   12  C   LIG     1      26.426  22.391  24.580  1.00  0.00     0.006 C 
HETATM   13  C   LIG     1      27.648  23.360  24.552  1.00  0.00    -0.002 C 
HETATM   14  C   LIG     1      27.956  23.574  23.022  1.00  0.00    -0.036 C 
HETATM   15  C   LIG     1      28.935  22.422  22.611  1.00  0.00     0.016 C 
HETATM   16  C   LIG     1      28.567  24.955  22.563  1.00  0.00     0.010 C 
HETATM   17  C   LIG     1      27.948  25.519  21.249  1.00  0.00     0.006 C 
HETATM   18  C   LIG     1      26.408  22.172  20.061  1.00  0.00     0.037 C 
HETATM   19  C   LIG     1      26.030  22.485  18.598  1.00  0.00     0.123 C 
ENDROOT
BRANCH  13  20
HETATM   20  C   LIG     1      27.481  24.611  25.489  1.00  0.00    -0.013 C 
HETATM   21  C   LIG     1      28.721  24.762  26.398  1.00  0.00     0.010 C 
BRANCH  20  22
HETATM   22  C   LIG     1      26.174  24.631  26.332  1.00  0.00     0.015 C 
BRANCH  22  23
HETATM   23  C   LIG     1      26.392  24.199  27.789  1.00  0.00     0.110 C 
BRANCH  23  24
HETATM   24  C   LIG     1      25.712  22.890  28.065  1.00  0.00     0.139 C 
HETATM   25  O   LIG     1      26.273  22.036  28.803  1.00  0.00    -0.650 OA
BRANCH  24  26
HETATM   26  O   LIG     1      24.462  22.606  27.521  1.00  0.00    -0.776 OA
HETATM   27  H   LIG     1      24.369  22.111  26.642  1.00  0.00     0.167 HD
ENDBRANCH  24  26
ENDBRANCH  23  24
ENDBRANCH  22  23
ENDBRANCH  20  22
ENDBRANCH  13  20
BRANCH  19  28
HETATM   28  O   LIG     1      25.956  21.293  17.858  1.00  0.00    -0.395 OA
HETATM   29  H   LIG     1      25.989  21.543  16.897  1.00  0.00     0.210 HD
ENDBRANCH  19  28
BRANCH   3  30
HETATM   30  O   LIG     1      28.932  23.434  15.141  1.00  0.00    -0.396 OA
HETATM   31  H   LIG     1      29.822  23.227  14.752  1.00  0.00     0.210 HD
ENDBRANCH   3  30
TORSDOF 7
ENDMDL
MODEL 12
REMARK VINA RESULT:      -4.9      8.132     13.500
REMARK  7 active torsions:
REMARK  status: ('A' for Active; 'I' for Inactive)
REMARK    1  A    between atoms: C_3  and  O_4 
REMARK    2  A    between atoms: C_14  and  C_15 
REMARK    3  A    between atoms: C_15  and  C_16 
REMARK    4  A    between atoms: C_16  and  C_17 
REMARK    5  A    between atoms: C_17  and  C_18 
REMARK    6  A    between atoms: C_18  and  O_19 
REMARK    7  A    between atoms: C_27  and  O_28 
ROOT
HETATM    1  C   LIG     1      26.564  21.247  25.428  1.00  0.00     0.025 C 
HETATM    2  C   LIG     1      25.584  20.940  26.590  1.00  0.00     0.039 C 
HETATM    3  C   LIG     1      25.249  22.212  27.411  1.00  0.00     0.118 C 
HETATM    4  C   LIG     1      25.436  23.520  26.612  1.00  0.00     0.032 C 
HETATM    5  C   LIG     1      25.028  23.323  25.151  1.00  0.00     0.012 C 
HETATM    6  C   LIG     1      25.926  22.273  24.396  1.00  0.00    -0.034 C 
HETATM    7  C   LIG     1      27.063  23.050  23.681  1.00  0.00     0.016 C 
HETATM    8  C   LIG     1      25.028  21.489  23.371  1.00  0.00    -0.001 C 
HETATM    9  C   LIG     1      25.788  20.311  22.701  1.00  0.00    -0.003 C 
HETATM   10  C   LIG     1      25.040  19.782  21.441  1.00  0.00    -0.002 C 
HETATM   11  C   LIG     1      25.292  18.376  20.927  1.00  0.00     0.006 C 
HETATM   12  C   LIG     1      24.224  18.190  19.838  1.00  0.00     0.006 C 
HETATM   13  C   LIG     1      23.136  19.290  20.043  1.00  0.00    -0.002 C 
HETATM   14  C   LIG     1      23.513  19.979  21.409  1.00  0.00    -0.036 C 
HETATM   15  C   LIG     1      22.798  19.146  22.526  1.00  0.00     0.016 C 
HETATM   16  C   LIG     1      23.165  21.505  21.604  1.00  0.00     0.010 C 
HETATM   17  C   LIG     1      24.291  22.330  22.298  1.00  0.00     0.006 C 
HETATM   18  C   LIG     1      26.171  19.285  23.772  1.00  0.00     0.037 C 
HETATM   19  C   LIG     1      27.140  19.950  24.773  1.00  0.00     0.123 C 
ENDROOT
BRANCH  13  20
HETATM   20  C   LIG     1      22.894  20.181  18.770  1.00  0.00    -0.013 C 
HETATM   21  C   LIG     1      22.126  19.375  17.698  1.00  0.00     0.010 C 
BRANCH  20  22
HETATM   22  C   LIG     1      24.175  20.824  18.164  1.00  0.00     0.015 C 
BRANCH  22  23
HETATM   23  C   LIG     1      24.121  22.358  18.138  1.00  0.00     0.110 C 
BRANCH  23  24
HETATM   24  C   LIG     1      25.434  22.946  18.567  1.00  0.00     0.139 C 
HETATM   25  O   LIG     1      25.735  24.121  18.229  1.00  0.00    -0.650 OA
BRANCH  24  26
HETATM   26  O   LIG     1      26.326  22.210  19.343  1.00  0.00    -0.776 OA
HETATM   27  H   LIG     1      27.291  22.084  19.062  1.00  0.00     0.167 HD
ENDBRANCH  24  26
ENDBRANCH  23  24
ENDBRANCH  22  23
ENDBRANCH  20  22
ENDBRANCH  13  20
BRANCH  19  28
HETATM   28  O   LIG     1      27.516  19.024  25.760  1.00  0.00    -0.395 OA
HETATM   29  H   LIG     1      28.481  18.827  25.623  1.00  0.00     0.210 HD
ENDBRANCH  19  28
BRANCH   3  30
HETATM   30  O   LIG     1      26.000  22.260  28.598  1.00  0.00    -0.396 OA
HETATM   31  H   LIG     1      26.409  21.364  28.731  1.00  0.00     0.210 HD
ENDBRANCH   3  30
TORSDOF 7
ENDMDL
MODEL 13
REMARK VINA RESULT:      -4.9     11.408     15.308
REMARK  7 active torsions:
REMARK  status: ('A' for Active; 'I' for Inactive)
REMARK    1  A    between atoms: C_3  and  O_4 
REMARK    2  A    between atoms: C_14  and  C_15 
REMARK    3  A    between atoms: C_15  and  C_16 
REMARK    4  A    between atoms: C_16  and  C_17 
REMARK    5  A    between atoms: C_17  and  C_18 
REMARK    6  A    between atoms: C_18  and  O_19 
REMARK    7  A    between atoms: C_27  and  O_28 
ROOT
HETATM    1  C   LIG     1      28.129  24.434  20.122  1.00  0.00     0.025 C 
HETATM    2  C   LIG     1      27.437  25.808  19.929  1.00  0.00     0.039 C 
HETATM    3  C   LIG     1      27.887  26.499  18.615  1.00  0.00     0.118 C 
HETATM    4  C   LIG     1      28.402  25.507  17.550  1.00  0.00     0.032 C 
HETATM    5  C   LIG     1      27.597  24.207  17.589  1.00  0.00     0.012 C 
HETATM    6  C   LIG     1      27.747  23.430  18.951  1.00  0.00    -0.034 C 
HETATM    7  C   LIG     1      28.887  22.391  18.779  1.00  0.00     0.016 C 
HETATM    8  C   LIG     1      26.377  22.736  19.287  1.00  0.00    -0.001 C 
HETATM    9  C   LIG     1      26.375  22.087  20.699  1.00  0.00    -0.003 C 
HETATM   10  C   LIG     1      25.184  21.099  20.880  1.00  0.00    -0.002 C 
HETATM   11  C   LIG     1      24.682  20.741  22.267  1.00  0.00     0.006 C 
HETATM   12  C   LIG     1      23.401  19.939  21.994  1.00  0.00     0.006 C 
HETATM   13  C   LIG     1      22.968  20.217  20.521  1.00  0.00    -0.002 C 
HETATM   14  C   LIG     1      23.929  21.364  20.029  1.00  0.00    -0.036 C 
HETATM   15  C   LIG     1      23.234  22.712  20.426  1.00  0.00     0.016 C 
HETATM   16  C   LIG     1      24.319  21.418  18.501  1.00  0.00     0.010 C 
HETATM   17  C   LIG     1      25.821  21.739  18.239  1.00  0.00     0.006 C 
HETATM   18  C   LIG     1      26.544  23.183  21.756  1.00  0.00     0.037 C 
HETATM   19  C   LIG     1      27.920  23.855  21.559  1.00  0.00     0.123 C 
ENDROOT
BRANCH  13  20
HETATM   20  C   LIG     1      22.814  18.914  19.653  1.00  0.00    -0.013 C 
HETATM   21  C   LIG     1      24.109  18.076  19.723  1.00  0.00     0.010 C 
BRANCH  20  22
HETATM   22  C   LIG     1      22.391  19.155  18.176  1.00  0.00     0.015 C 
BRANCH  22  23
HETATM   23  C   LIG     1      21.291  18.193  17.702  1.00  0.00     0.110 C 
BRANCH  23  24
HETATM   24  C   LIG     1      20.849  18.534  16.309  1.00  0.00     0.139 C 
HETATM   25  O   LIG     1      21.706  18.682  15.398  1.00  0.00    -0.650 OA
BRANCH  24  26
HETATM   26  O   LIG     1      19.498  18.682  16.004  1.00  0.00    -0.776 OA
HETATM   27  H   LIG     1      19.065  19.597  15.957  1.00  0.00     0.167 HD
ENDBRANCH  24  26
ENDBRANCH  23  24
ENDBRANCH  22  23
ENDBRANCH  20  22
ENDBRANCH  13  20
BRANCH  19  28
HETATM   28  O   LIG     1      28.104  24.858  22.526  1.00  0.00    -0.395 OA
HETATM   29  H   LIG     1      27.343  24.795  23.161  1.00  0.00     0.210 HD
ENDBRANCH  19  28
BRANCH   3  30
HETATM   30  O   LIG     1      28.859  27.482  18.870  1.00  0.00    -0.396 OA
HETATM   31  H   LIG     1      28.383  28.316  19.125  1.00  0.00     0.210 HD
ENDBRANCH   3  30
TORSDOF 7
ENDMDL
MODEL 14
REMARK VINA RESULT:      -4.8      9.902     13.133
REMARK  7 active torsions:
REMARK  status: ('A' for Active; 'I' for Inactive)
REMARK    1  A    between atoms: C_3  and  O_4 
REMARK    2  A    between atoms: C_14  and  C_15 
REMARK    3  A    between atoms: C_15  and  C_16 
REMARK    4  A    between atoms: C_16  and  C_17 
REMARK    5  A    between atoms: C_17  and  C_18 
REMARK    6  A    between atoms: C_18  and  O_19 
REMARK    7  A    between atoms: C_27  and  O_28 
ROOT
HETATM    1  C   LIG     1      23.790  21.607  23.895  1.00  0.00     0.025 C 
HETATM    2  C   LIG     1      24.143  20.289  24.631  1.00  0.00     0.039 C 
HETATM    3  C   LIG     1      23.076  19.190  24.386  1.00  0.00     0.118 C 
HETATM    4  C   LIG     1      22.278  19.396  23.081  1.00  0.00     0.032 C 
HETATM    5  C   LIG     1      23.179  19.961  21.980  1.00  0.00     0.012 C 
HETATM    6  C   LIG     1      23.744  21.390  22.321  1.00  0.00    -0.034 C 
HETATM    7  C   LIG     1      22.790  22.439  21.690  1.00  0.00     0.016 C 
HETATM    8  C   LIG     1      25.200  21.507  21.737  1.00  0.00    -0.001 C 
HETATM    9  C   LIG     1      25.906  22.821  22.172  1.00  0.00    -0.003 C 
HETATM   10  C   LIG     1      27.172  23.109  21.310  1.00  0.00    -0.002 C 
HETATM   11  C   LIG     1      28.274  24.010  21.835  1.00  0.00     0.006 C 
HETATM   12  C   LIG     1      29.397  23.855  20.798  1.00  0.00     0.006 C 
HETATM   13  C   LIG     1      29.097  22.573  19.959  1.00  0.00    -0.002 C 
HETATM   14  C   LIG     1      27.879  21.891  20.689  1.00  0.00    -0.036 C 
HETATM   15  C   LIG     1      28.496  20.958  21.785  1.00  0.00     0.016 C 
HETATM   16  C   LIG     1      26.853  21.059  19.825  1.00  0.00     0.010 C 
HETATM   17  C   LIG     1      25.361  21.292  20.211  1.00  0.00     0.006 C 
HETATM   18  C   LIG     1      26.079  22.818  23.694  1.00  0.00     0.037 C 
HETATM   19  C   LIG     1      24.684  22.806  24.353  1.00  0.00     0.123 C 
ENDROOT
BRANCH  13  20
HETATM   20  C   LIG     1      29.021  22.838  18.411  1.00  0.00    -0.013 C 
HETATM   21  C   LIG     1      30.273  22.262  17.714  1.00  0.00     0.010 C 
BRANCH  20  22
HETATM   22  C   LIG     1      28.798  24.324  18.009  1.00  0.00     0.015 C 
BRANCH  22  23
HETATM   23  C   LIG     1      27.314  24.695  17.881  1.00  0.00     0.110 C 
BRANCH  23  24
HETATM   24  C   LIG     1      26.969  25.836  18.794  1.00  0.00     0.139 C 
HETATM   25  O   LIG     1      27.728  26.839  18.857  1.00  0.00    -0.650 OA
BRANCH  24  26
HETATM   26  O   LIG     1      25.813  25.805  19.570  1.00  0.00    -0.776 OA
HETATM   27  H   LIG     1      25.589  26.556  20.213  1.00  0.00     0.167 HD
ENDBRANCH  24  26
ENDBRANCH  23  24
ENDBRANCH  22  23
ENDBRANCH  20  22
ENDBRANCH  13  20
BRANCH  19  28
HETATM   28  O   LIG     1      24.815  22.815  25.752  1.00  0.00    -0.395 OA
HETATM   29  H   LIG     1      23.901  22.725  26.132  1.00  0.00     0.210 HD
ENDBRANCH  19  28
BRANCH   3  30
HETATM   30  O   LIG     1      22.197  19.088  25.479  1.00  0.00    -0.396 OA
HETATM   31  H   LIG     1      21.910  18.139  25.546  1.00  0.00     0.210 HD
ENDBRANCH   3  30
TORSDOF 7
ENDMDL
MODEL 15
REMARK VINA RESULT:      -4.8      9.644     12.047
REMARK  7 active torsions:
REMARK  status: ('A' for Active; 'I' for Inactive)
REMARK    1  A    between atoms: C_3  and  O_4 
REMARK    2  A    between atoms: C_14  and  C_15 
REMARK    3  A    between atoms: C_15  and  C_16 
REMARK    4  A    between atoms: C_16  and  C_17 
REMARK    5  A    between atoms: C_17  and  C_18 
REMARK    6  A    between atoms: C_18  and  O_19 
REMARK    7  A    between atoms: C_27  and  O_28 
ROOT
HETATM    1  C   LIG     1      28.180  23.709  20.423  1.00  0.00     0.025 C 
HETATM    2  C   LIG     1      28.439  25.178  20.847  1.00  0.00     0.039 C 
HETATM    3  C   LIG     1      27.903  26.183  19.794  1.00  0.00     0.118 C 
HETATM    4  C   LIG     1      26.768  25.604  18.921  1.00  0.00     0.032 C 
HETATM    5  C   LIG     1      25.869  24.682  19.747  1.00  0.00     0.012 C 
HETATM    6  C   LIG     1      26.624  23.414  20.296  1.00  0.00    -0.034 C 
HETATM    7  C   LIG     1      26.405  22.258  19.285  1.00  0.00     0.016 C 
HETATM    8  C   LIG     1      26.044  23.061  21.715  1.00  0.00    -0.001 C 
HETATM    9  C   LIG     1      26.845  21.927  22.413  1.00  0.00    -0.003 C 
HETATM   10  C   LIG     1      26.066  21.329  23.623  1.00  0.00    -0.002 C 
HETATM   11  C   LIG     1      26.803  20.599  24.731  1.00  0.00     0.006 C 
HETATM   12  C   LIG     1      25.722  20.372  25.798  1.00  0.00     0.006 C 
HETATM   13  C   LIG     1      24.531  21.330  25.484  1.00  0.00    -0.002 C 
HETATM   14  C   LIG     1      25.057  22.256  24.323  1.00  0.00    -0.036 C 
HETATM   15  C   LIG     1      25.768  23.465  25.021  1.00  0.00     0.016 C 
HETATM   16  C   LIG     1      24.019  22.810  23.272  1.00  0.00     0.010 C 
HETATM   17  C   LIG     1      24.524  22.771  21.798  1.00  0.00     0.006 C 
HETATM   18  C   LIG     1      28.277  22.407  22.669  1.00  0.00     0.037 C 
HETATM   19  C   LIG     1      28.958  22.685  21.312  1.00  0.00     0.123 C 
ENDROOT
BRANCH  13  20
HETATM   20  C   LIG     1      23.154  20.589  25.317  1.00  0.00    -0.013 C 
HETATM   21  C   LIG     1      22.531  20.311  26.703  1.00  0.00     0.010 C 
BRANCH  20  22
HETATM   22  C   LIG     1      23.207  19.289  24.464  1.00  0.00     0.015 C 
BRANCH  22  23
HETATM   23  C   LIG     1      22.492  19.428  23.112  1.00  0.00     0.110 C 
BRANCH  23  24
HETATM   24  C   LIG     1      23.444  19.184  21.978  1.00  0.00     0.139 C 
HETATM   25  O   LIG     1      24.526  18.574  22.189  1.00  0.00    -0.650 OA
BRANCH  24  26
HETATM   26  O   LIG     1      23.145  19.616  20.688  1.00  0.00    -0.776 OA
HETATM   27  H   LIG     1      23.300  20.576  20.404  1.00  0.00     0.167 HD
ENDBRANCH  24  26
ENDBRANCH  23  24
ENDBRANCH  22  23
ENDBRANCH  20  22
ENDBRANCH  13  20
BRANCH  19  28
HETATM   28  O   LIG     1      30.279  23.116  21.520  1.00  0.00    -0.395 OA
HETATM   29  H   LIG     1      30.233  23.947  22.063  1.00  0.00     0.210 HD
ENDBRANCH  19  28
BRANCH   3  30
HETATM   30  O   LIG     1      28.943  26.663  18.978  1.00  0.00    -0.396 OA
HETATM   31  H   LIG     1      28.854  26.225  18.091  1.00  0.00     0.210 HD
ENDBRANCH   3  30
TORSDOF 7
ENDMDL
MODEL 16
REMARK VINA RESULT:      -4.7      2.668      8.205
REMARK  7 active torsions:
REMARK  status: ('A' for Active; 'I' for Inactive)
REMARK    1  A    between atoms: C_3  and  O_4 
REMARK    2  A    between atoms: C_14  and  C_15 
REMARK    3  A    between atoms: C_15  and  C_16 
REMARK    4  A    between atoms: C_16  and  C_17 
REMARK    5  A    between atoms: C_17  and  C_18 
REMARK    6  A    between atoms: C_18  and  O_19 
REMARK    7  A    between atoms: C_27  and  O_28 
ROOT
HETATM    1  C   LIG     1      28.675  25.951  32.823  1.00  0.00     0.025 C 
HETATM    2  C   LIG     1      27.610  25.189  33.652  1.00  0.00     0.039 C 
HETATM    3  C   LIG     1      26.618  26.159  34.345  1.00  0.00     0.118 C 
HETATM    4  C   LIG     1      26.509  27.527  33.637  1.00  0.00     0.032 C 
HETATM    5  C   LIG     1      26.609  27.359  32.120  1.00  0.00     0.012 C 
HETATM    6  C   LIG     1      28.000  26.788  31.653  1.00  0.00    -0.034 C 
HETATM    7  C   LIG     1      28.911  27.994  31.298  1.00  0.00     0.016 C 
HETATM    8  C   LIG     1      27.768  25.852  30.411  1.00  0.00    -0.001 C 
HETATM    9  C   LIG     1      29.062  25.105  29.985  1.00  0.00    -0.003 C 
HETATM   10  C   LIG     1      28.930  24.485  28.561  1.00  0.00    -0.002 C 
HETATM   11  C   LIG     1      29.815  23.328  28.138  1.00  0.00     0.006 C 
HETATM   12  C   LIG     1      29.226  22.894  26.788  1.00  0.00     0.006 C 
HETATM   13  C   LIG     1      27.794  23.503  26.673  1.00  0.00    -0.002 C 
HETATM   14  C   LIG     1      27.508  24.127  28.092  1.00  0.00    -0.036 C 
HETATM   15  C   LIG     1      26.886  22.976  28.954  1.00  0.00     0.016 C 
HETATM   16  C   LIG     1      26.577  25.397  28.182  1.00  0.00     0.010 C 
HETATM   17  C   LIG     1      27.084  26.488  29.173  1.00  0.00     0.006 C 
HETATM   18  C   LIG     1      29.500  24.172  31.119  1.00  0.00     0.037 C 
HETATM   19  C   LIG     1      29.846  25.025  32.358  1.00  0.00     0.123 C 
ENDROOT
BRANCH  13  20
HETATM   20  C   LIG     1      27.586  24.383  25.387  1.00  0.00    -0.013 C 
HETATM   21  C   LIG     1      26.799  23.586  24.323  1.00  0.00     0.010 C 
BRANCH  20  22
HETATM   22  C   LIG     1      28.888  24.978  24.779  1.00  0.00     0.015 C 
BRANCH  22  23
HETATM   23  C   LIG     1      29.306  26.302  25.436  1.00  0.00     0.110 C 
BRANCH  23  24
HETATM   24  C   LIG     1      29.800  27.276  24.405  1.00  0.00     0.139 C 
HETATM   25  O   LIG     1      30.314  26.850  23.337  1.00  0.00    -0.650 OA
BRANCH  24  26
HETATM   26  O   LIG     1      29.693  28.649  24.610  1.00  0.00    -0.776 OA
HETATM   27  H   LIG     1      29.240  29.026  25.435  1.00  0.00     0.167 HD
ENDBRANCH  24  26
ENDBRANCH  23  24
ENDBRANCH  22  23
ENDBRANCH  20  22
ENDBRANCH  13  20
BRANCH  19  28
HETATM   28  O   LIG     1      30.263  24.192  33.410  1.00  0.00    -0.395 OA
HETATM   29  H   LIG     1      30.107  24.690  34.255  1.00  0.00     0.210 HD
ENDBRANCH  19  28
BRANCH   3  30
HETATM   30  O   LIG     1      26.952  26.341  35.699  1.00  0.00    -0.396 OA
HETATM   31  H   LIG     1      27.872  25.991  35.830  1.00  0.00     0.210 HD
ENDBRANCH   3  30
TORSDOF 7
ENDMDL
MODEL 17
REMARK VINA RESULT:      -4.7      7.823     13.508
REMARK  7 active torsions:
REMARK  status: ('A' for Active; 'I' for Inactive)
REMARK    1  A    between atoms: C_3  and  O_4 
REMARK    2  A    between atoms: C_14  and  C_15 
REMARK    3  A    between atoms: C_15  and  C_16 
REMARK    4  A    between atoms: C_16  and  C_17 
REMARK    5  A    between atoms: C_17  and  C_18 
REMARK    6  A    between atoms: C_18  and  O_19 
REMARK    7  A    between atoms: C_27  and  O_28 
ROOT
HETATM    1  C   LIG     1      26.300  22.236  25.726  1.00  0.00     0.025 C 
HETATM    2  C   LIG     1      25.398  23.360  26.299  1.00  0.00     0.039 C 
HETATM    3  C   LIG     1      26.185  24.683  26.498  1.00  0.00     0.118 C 
HETATM    4  C   LIG     1      27.427  24.795  25.588  1.00  0.00     0.032 C 
HETATM    5  C   LIG     1      27.151  24.172  24.218  1.00  0.00     0.012 C 
HETATM    6  C   LIG     1      26.861  22.626  24.291  1.00  0.00    -0.034 C 
HETATM    7  C   LIG     1      28.201  21.882  24.049  1.00  0.00     0.016 C 
HETATM    8  C   LIG     1      25.791  22.264  23.198  1.00  0.00    -0.001 C 
HETATM    9  C   LIG     1      25.312  20.790  23.307  1.00  0.00    -0.003 C 
HETATM   10  C   LIG     1      24.554  20.331  22.025  1.00  0.00    -0.002 C 
HETATM   11  C   LIG     1      23.587  19.163  22.076  1.00  0.00     0.006 C 
HETATM   12  C   LIG     1      22.916  19.185  20.694  1.00  0.00     0.006 C 
HETATM   13  C   LIG     1      23.183  20.584  20.056  1.00  0.00    -0.002 C 
HETATM   14  C   LIG     1      23.852  21.429  21.206  1.00  0.00    -0.036 C 
HETATM   15  C   LIG     1      22.674  22.083  22.004  1.00  0.00     0.016 C 
HETATM   16  C   LIG     1      24.889  22.550  20.811  1.00  0.00     0.010 C 
HETATM   17  C   LIG     1      26.148  22.603  21.728  1.00  0.00     0.006 C 
HETATM   18  C   LIG     1      24.602  20.590  24.650  1.00  0.00     0.037 C 
HETATM   19  C   LIG     1      25.616  20.831  25.789  1.00  0.00     0.123 C 
ENDROOT
BRANCH  13  20
HETATM   20  C   LIG     1      23.878  20.511  18.647  1.00  0.00    -0.013 C 
HETATM   21  C   LIG     1      22.814  20.341  17.541  1.00  0.00     0.010 C 
BRANCH  20  22
HETATM   22  C   LIG     1      24.987  19.428  18.517  1.00  0.00     0.015 C 
BRANCH  22  23
HETATM   23  C   LIG     1      26.401  19.987  18.740  1.00  0.00     0.110 C 
BRANCH  23  24
HETATM   24  C   LIG     1      26.780  20.932  17.638  1.00  0.00     0.139 C 
HETATM   25  O   LIG     1      26.976  20.492  16.474  1.00  0.00    -0.650 OA
BRANCH  24  26
HETATM   26  O   LIG     1      26.912  22.297  17.881  1.00  0.00    -0.776 OA
HETATM   27  H   LIG     1      26.937  22.665  18.825  1.00  0.00     0.167 HD
ENDBRANCH  24  26
ENDBRANCH  23  24
ENDBRANCH  22  23
ENDBRANCH  20  22
ENDBRANCH  13  20
BRANCH  19  28
HETATM   28  O   LIG     1      24.992  20.642  27.033  1.00  0.00    -0.395 OA
HETATM   29  H   LIG     1      24.514  19.772  26.990  1.00  0.00     0.210 HD
ENDBRANCH  19  28
BRANCH   3  30
HETATM   30  O   LIG     1      26.555  24.852  27.843  1.00  0.00    -0.396 OA
HETATM   31  H   LIG     1      27.545  24.911  27.877  1.00  0.00     0.210 HD
ENDBRANCH   3  30
TORSDOF 7
ENDMDL
MODEL 18
REMARK VINA RESULT:      -4.6      5.747      9.389
REMARK  7 active torsions:
REMARK  status: ('A' for Active; 'I' for Inactive)
REMARK    1  A    between atoms: C_3  and  O_4 
REMARK    2  A    between atoms: C_14  and  C_15 
REMARK    3  A    between atoms: C_15  and  C_16 
REMARK    4  A    between atoms: C_16  and  C_17 
REMARK    5  A    between atoms: C_17  and  C_18 
REMARK    6  A    between atoms: C_18  and  O_19 
REMARK    7  A    between atoms: C_27  and  O_28 
ROOT
HETATM    1  C   LIG     1      25.946  21.406  21.545  1.00  0.00     0.025 C 
HETATM    2  C   LIG     1      25.939  22.605  20.562  1.00  0.00     0.039 C 
HETATM    3  C   LIG     1      24.550  22.798  19.899  1.00  0.00     0.118 C 
HETATM    4  C   LIG     1      23.390  22.213  20.733  1.00  0.00     0.032 C 
HETATM    5  C   LIG     1      23.649  22.408  22.229  1.00  0.00     0.012 C 
HETATM    6  C   LIG     1      24.923  21.638  22.739  1.00  0.00    -0.034 C 
HETATM    7  C   LIG     1      24.457  20.262  23.285  1.00  0.00     0.016 C 
HETATM    8  C   LIG     1      25.617  22.500  23.857  1.00  0.00    -0.001 C 
HETATM    9  C   LIG     1      26.981  21.902  24.302  1.00  0.00    -0.003 C 
HETATM   10  C   LIG     1      27.478  22.528  25.639  1.00  0.00    -0.002 C 
HETATM   11  C   LIG     1      28.949  22.494  26.008  1.00  0.00     0.006 C 
HETATM   12  C   LIG     1      29.032  23.383  27.257  1.00  0.00     0.006 C 
HETATM   13  C   LIG     1      27.728  24.237  27.324  1.00  0.00    -0.002 C 
HETATM   14  C   LIG     1      26.992  23.953  25.959  1.00  0.00    -0.036 C 
HETATM   15  C   LIG     1      27.554  25.000  24.938  1.00  0.00     0.016 C 
HETATM   16  C   LIG     1      25.416  24.002  25.929  1.00  0.00     0.010 C 
HETATM   17  C   LIG     1      24.760  22.859  25.097  1.00  0.00     0.006 C 
HETATM   18  C   LIG     1      27.949  21.923  23.115  1.00  0.00     0.037 C 
HETATM   19  C   LIG     1      27.389  21.014  22.000  1.00  0.00     0.123 C 
ENDROOT
BRANCH  13  20
HETATM   20  C   LIG     1      26.939  24.075  28.674  1.00  0.00    -0.013 C 
HETATM   21  C   LIG     1      27.304  25.224  29.641  1.00  0.00     0.010 C 
BRANCH  20  22
HETATM   22  C   LIG     1      27.103  22.695  29.371  1.00  0.00     0.015 C 
BRANCH  22  23
HETATM   23  C   LIG     1      26.058  21.665  28.917  1.00  0.00     0.110 C 
BRANCH  23  24
HETATM   24  C   LIG     1      26.707  20.350  28.600  1.00  0.00     0.139 C 
HETATM   25  O   LIG     1      27.964  20.261  28.576  1.00  0.00    -0.650 OA
BRANCH  24  26
HETATM   26  O   LIG     1      25.939  19.218  28.337  1.00  0.00    -0.776 OA
HETATM   27  H   LIG     1      24.929  19.270  28.271  1.00  0.00     0.167 HD
ENDBRANCH  24  26
ENDBRANCH  23  24
ENDBRANCH  22  23
ENDBRANCH  20  22
ENDBRANCH  13  20
BRANCH  19  28
HETATM   28  O   LIG     1      28.267  21.006  20.903  1.00  0.00    -0.395 OA
HETATM   29  H   LIG     1      28.491  20.056  20.716  1.00  0.00     0.210 HD
ENDBRANCH  19  28
BRANCH   3  30
HETATM   30  O   LIG     1      24.531  22.258  18.601  1.00  0.00    -0.396 OA
HETATM   31  H   LIG     1      24.289  21.297  18.679  1.00  0.00     0.210 HD
ENDBRANCH   3  30
TORSDOF 7
ENDMDL
MODEL 19
REMARK VINA RESULT:      -4.6      6.538      9.786
REMARK  7 active torsions:
REMARK  status: ('A' for Active; 'I' for Inactive)
REMARK    1  A    between atoms: C_3  and  O_4 
REMARK    2  A    between atoms: C_14  and  C_15 
REMARK    3  A    between atoms: C_15  and  C_16 
REMARK    4  A    between atoms: C_16  and  C_17 
REMARK    5  A    between atoms: C_17  and  C_18 
REMARK    6  A    between atoms: C_18  and  O_19 
REMARK    7  A    between atoms: C_27  and  O_28 
ROOT
HETATM    1  C   LIG     1      25.118  22.205  19.599  1.00  0.00     0.025 C 
HETATM    2  C   LIG     1      25.694  20.816  19.221  1.00  0.00     0.039 C 
HETATM    3  C   LIG     1      26.716  20.914  18.058  1.00  0.00     0.118 C 
HETATM    4  C   LIG     1      27.369  22.307  17.937  1.00  0.00     0.032 C 
HETATM    5  C   LIG     1      27.601  22.918  19.321  1.00  0.00     0.012 C 
HETATM    6  C   LIG     1      26.264  23.181  20.109  1.00  0.00    -0.034 C 
HETATM    7  C   LIG     1      25.838  24.649  19.842  1.00  0.00     0.016 C 
HETATM    8  C   LIG     1      26.523  22.923  21.639  1.00  0.00    -0.001 C 
HETATM    9  C   LIG     1      25.218  22.990  22.478  1.00  0.00    -0.003 C 
HETATM   10  C   LIG     1      25.516  23.107  24.003  1.00  0.00    -0.002 C 
HETATM   11  C   LIG     1      24.476  22.694  25.028  1.00  0.00     0.006 C 
HETATM   12  C   LIG     1      25.232  22.762  26.363  1.00  0.00     0.006 C 
HETATM   13  C   LIG     1      26.760  22.786  26.045  1.00  0.00    -0.002 C 
HETATM   14  C   LIG     1      26.852  22.522  24.494  1.00  0.00    -0.036 C 
HETATM   15  C   LIG     1      26.901  20.965  24.322  1.00  0.00     0.016 C 
HETATM   16  C   LIG     1      28.048  23.165  23.690  1.00  0.00     0.010 C 
HETATM   17  C   LIG     1      27.637  23.765  22.312  1.00  0.00     0.006 C 
HETATM   18  C   LIG     1      24.275  21.867  22.033  1.00  0.00     0.037 C 
HETATM   19  C   LIG     1      23.887  22.101  20.557  1.00  0.00     0.123 C 
ENDROOT
BRANCH  13  20
HETATM   20  C   LIG     1      27.512  24.020  26.664  1.00  0.00    -0.013 C 
HETATM   21  C   LIG     1      28.803  23.553  27.371  1.00  0.00     0.010 C 
BRANCH  20  22
HETATM   22  C   LIG     1      26.653  24.905  27.612  1.00  0.00     0.015 C 
BRANCH  22  23
HETATM   23  C   LIG     1      26.917  24.625  29.098  1.00  0.00     0.110 C 
BRANCH  23  24
HETATM   24  C   LIG     1      27.278  25.889  29.824  1.00  0.00     0.139 C 
HETATM   25  O   LIG     1      27.905  25.828  30.914  1.00  0.00    -0.650 OA
BRANCH  24  26
HETATM   26  O   LIG     1      26.933  27.134  29.303  1.00  0.00    -0.776 OA
HETATM   27  H   LIG     1      26.043  27.287  28.846  1.00  0.00     0.167 HD
ENDBRANCH  24  26
ENDBRANCH  23  24
ENDBRANCH  22  23
ENDBRANCH  20  22
ENDBRANCH  13  20
BRANCH  19  28
HETATM   28  O   LIG     1      23.012  21.090  20.127  1.00  0.00    -0.395 OA
HETATM   29  H   LIG     1      22.854  21.233  19.157  1.00  0.00     0.210 HD
ENDBRANCH  19  28
BRANCH   3  30
HETATM   30  O   LIG     1      26.125  20.549  16.835  1.00  0.00    -0.396 OA
HETATM   31  H   LIG     1      25.708  21.364  16.449  1.00  0.00     0.210 HD
ENDBRANCH   3  30
TORSDOF 7
ENDMDL
MODEL 20
REMARK VINA RESULT:      -4.5      5.469     10.548
REMARK  7 active torsions:
REMARK  status: ('A' for Active; 'I' for Inactive)
REMARK    1  A    between atoms: C_3  and  O_4 
REMARK    2  A    between atoms: C_14  and  C_15 
REMARK    3  A    between atoms: C_15  and  C_16 
REMARK    4  A    between atoms: C_16  and  C_17 
REMARK    5  A    between atoms: C_17  and  C_18 
REMARK    6  A    between atoms: C_18  and  O_19 
REMARK    7  A    between atoms: C_27  and  O_28 
ROOT
HETATM    1  C   LIG     1      28.471  23.717  28.477  1.00  0.00     0.025 C 
HETATM    2  C   LIG     1      27.948  23.636  29.935  1.00  0.00     0.039 C 
HETATM    3  C   LIG     1      27.650  25.042  30.519  1.00  0.00     0.118 C 
HETATM    4  C   LIG     1      27.359  26.102  29.435  1.00  0.00     0.032 C 
HETATM    5  C   LIG     1      26.579  25.486  28.272  1.00  0.00     0.012 C 
HETATM    6  C   LIG     1      27.386  24.366  27.514  1.00  0.00    -0.034 C 
HETATM    7  C   LIG     1      28.105  25.032  26.311  1.00  0.00     0.016 C 
HETATM    8  C   LIG     1      26.379  23.254  27.043  1.00  0.00    -0.001 C 
HETATM    9  C   LIG     1      27.103  22.020  26.436  1.00  0.00    -0.003 C 
HETATM   10  C   LIG     1      26.122  21.105  25.644  1.00  0.00    -0.002 C 
HETATM   11  C   LIG     1      26.455  19.645  25.399  1.00  0.00     0.006 C 
HETATM   12  C   LIG     1      25.165  19.074  24.793  1.00  0.00     0.006 C 
HETATM   13  C   LIG     1      24.009  20.077  25.097  1.00  0.00    -0.002 C 
HETATM   14  C   LIG     1      24.645  21.137  26.075  1.00  0.00    -0.036 C 
HETATM   15  C   LIG     1      24.450  20.566  27.520  1.00  0.00     0.016 C 
HETATM   16  C   LIG     1      24.106  22.619  26.032  1.00  0.00     0.010 C 
HETATM   17  C   LIG     1      25.221  23.705  26.116  1.00  0.00     0.006 C 
HETATM   18  C   LIG     1      27.960  21.358  27.520  1.00  0.00     0.037 C 
HETATM   19  C   LIG     1      29.048  22.355  27.972  1.00  0.00     0.123 C 
ENDROOT
BRANCH  13  20
HETATM   20  C   LIG     1      23.249  20.570  23.812  1.00  0.00    -0.013 C 
HETATM   21  C   LIG     1      22.378  19.429  23.243  1.00  0.00     0.010 C 
BRANCH  20  22
HETATM   22  C   LIG     1      24.156  21.178  22.705  1.00  0.00     0.015 C 
BRANCH  22  23
HETATM   23  C   LIG     1      23.719  22.587  22.277  1.00  0.00     0.110 C 
BRANCH  23  24
HETATM   24  C   LIG     1      22.757  22.520  21.126  1.00  0.00     0.139 C 
HETATM   25  O   LIG     1      23.091  21.932  20.064  1.00  0.00    -0.650 OA
BRANCH  24  26
HETATM   26  O   LIG     1      21.492  23.096  21.219  1.00  0.00    -0.776 OA
HETATM   27  H   LIG     1      20.677  22.544  21.461  1.00  0.00     0.167 HD
ENDBRANCH  24  26
ENDBRANCH  23  24
ENDBRANCH  22  23
ENDBRANCH  20  22
ENDBRANCH  13  20
BRANCH  19  28
HETATM   28  O   LIG     1      29.856  21.766  28.958  1.00  0.00    -0.395 OA
HETATM   29  H   LIG     1      29.367  21.840  29.820  1.00  0.00     0.210 HD
ENDBRANCH  19  28
BRANCH   3  30
HETATM   30  O   LIG     1      28.698  25.476  31.350  1.00  0.00    -0.396 OA
HETATM   31  H   LIG     1      28.335  25.561  32.270  1.00  0.00     0.210 HD
ENDBRANCH   3  30
TORSDOF 7
ENDMDL
