REMARK  7 active torsions:
REMARK  status: ('A' for Active; 'I' for Inactive)
REMARK    1  A    between atoms: O_1  and  C_2 
REMARK    2  A    between atoms: C_13  and  O_14 
REMARK    3  A    between atoms: C_20  and  C_21 
REMARK    4  A    between atoms: C_21  and  C_23 
REMARK    5  A    between atoms: C_23  and  C_24 
REMARK    6  A    between atoms: C_24  and  C_25 
REMARK    7  A    between atoms: C_25  and  O_26 
ROOT
HETATM    1  C   LIG     1      -5.465   2.042  -0.485  1.00  0.00     0.118 C 
HETATM    2  C   LIG     1      -4.388   2.229  -1.591  1.00  0.00     0.032 C 
HETATM    3  C   LIG     1      -3.265   1.153  -1.655  1.00  0.00     0.012 C 
HETATM    4  C   LIG     1      -2.999   0.391  -0.318  1.00  0.00    -0.036 C 
HETATM    5  C   LIG     1      -3.882  -0.896  -0.298  1.00  0.00     0.016 C 
HETATM    6  C   LIG     1      -3.378   1.372   0.848  1.00  0.00    -0.004 C 
HETATM    7  C   LIG     1      -2.753   0.955   2.195  1.00  0.00     0.006 C 
HETATM    8  C   LIG     1      -1.203   1.035   2.137  1.00  0.00     0.006 C 
HETATM    9  C   LIG     1      -0.650   0.917   0.689  1.00  0.00    -0.005 C 
HETATM   10  C   LIG     1      -1.496  -0.087  -0.142  1.00  0.00     0.001 C 
HETATM   11  C   LIG     1      -0.751  -0.497  -1.437  1.00  0.00     0.038 C 
HETATM   12  C   LIG     1       0.585  -1.254  -1.149  1.00  0.00     0.127 C 
HETATM   13  C   LIG     1       1.292  -0.812   0.195  1.00  0.00    -0.010 C 
HETATM   14  C   LIG     1       0.913  -1.780   1.371  1.00  0.00     0.018 C 
HETATM   15  C   LIG     1       0.878   0.639   0.538  1.00  0.00     0.001 C 
HETATM   16  C   LIG     1       1.849   1.095   1.625  1.00  0.00     0.006 C 
HETATM   17  C   LIG     1       3.154   0.337   1.316  1.00  0.00     0.006 C 
HETATM   18  C   LIG     1       2.850  -0.596   0.116  1.00  0.00     0.000 C 
HETATM   19  C   LIG     1      -4.892   1.633   0.904  1.00  0.00     0.037 C 
ENDROOT
BRANCH  18  20
HETATM   20  C   LIG     1       3.890  -1.784  -0.034  1.00  0.00    -0.013 C 
HETATM   21  C   LIG     1       3.325  -3.196   0.182  1.00  0.00     0.010 C 
BRANCH  20  22
HETATM   22  C   LIG     1       4.642  -1.738  -1.404  1.00  0.00     0.015 C 
BRANCH  22  23
HETATM   23  C   LIG     1       5.899  -0.849  -1.403  1.00  0.00     0.110 C 
BRANCH  23  24
HETATM   24  C   LIG     1       5.585   0.615  -1.387  1.00  0.00     0.139 C 
HETATM   25  O   LIG     1       6.038   1.345  -0.465  1.00  0.00    -0.650 OA
BRANCH  24  26
HETATM   26  O   LIG     1       4.824   1.175  -2.409  1.00  0.00    -0.776 OA
HETATM   27  H   LIG     1       4.607   2.165  -2.410  1.00  0.00     0.167 HD
ENDBRANCH  24  26
ENDBRANCH  23  24
ENDBRANCH  22  23
ENDBRANCH  20  22
ENDBRANCH  18  20
BRANCH  12  28
HETATM   28  O   LIG     1       1.444  -1.077  -2.247  1.00  0.00    -0.395 OA
HETATM   29  H   LIG     1       1.085  -1.628  -2.990  1.00  0.00     0.210 HD
ENDBRANCH  12  28
BRANCH   1  30
HETATM   30  O   LIG     1      -6.435   1.114  -0.898  1.00  0.00    -0.396 OA
HETATM   31  H   LIG     1      -6.977   1.553  -1.605  1.00  0.00     0.210 HD
ENDBRANCH   1  30
TORSDOF 7
