MODEL 1
REMARK VINA RESULT:      -5.5      0.000      0.000
REMARK  7 active torsions:
REMARK  status: ('A' for Active; 'I' for Inactive)
REMARK    1  A    between atoms: O_1  and  C_2 
REMARK    2  A    between atoms: C_13  and  O_14 
REMARK    3  A    between atoms: C_20  and  C_21 
REMARK    4  A    between atoms: C_21  and  C_23 
REMARK    5  A    between atoms: C_23  and  C_24 
REMARK    6  A    between atoms: C_24  and  C_25 
REMARK    7  A    between atoms: C_25  and  O_26 
ROOT
HETATM    1  C   LIG     1      23.740  21.281  18.553  1.00  0.00     0.118 C 
HETATM    2  C   LIG     1      23.677  20.124  19.591  1.00  0.00     0.032 C 
HETATM    3  C   LIG     1      23.503  20.539  21.081  1.00  0.00     0.012 C 
HETATM    4  C   LIG     1      23.992  21.980  21.431  1.00  0.00    -0.036 C 
HETATM    5  C   LIG     1      22.787  22.961  21.281  1.00  0.00     0.016 C 
HETATM    6  C   LIG     1      25.148  22.325  20.426  1.00  0.00    -0.004 C 
HETATM    7  C   LIG     1      26.028  23.492  20.918  1.00  0.00     0.006 C 
HETATM    8  C   LIG     1      26.777  23.111  22.224  1.00  0.00     0.006 C 
HETATM    9  C   LIG     1      26.063  21.982  23.018  1.00  0.00    -0.005 C 
HETATM   10  C   LIG     1      24.519  22.133  22.920  1.00  0.00     0.001 C 
HETATM   11  C   LIG     1      23.810  21.267  23.991  1.00  0.00     0.038 C 
HETATM   12  C   LIG     1      24.155  21.710  25.448  1.00  0.00     0.127 C 
HETATM   13  C   LIG     1      25.605  22.325  25.602  1.00  0.00    -0.010 C 
HETATM   14  C   LIG     1      25.559  23.892  25.524  1.00  0.00     0.018 C 
HETATM   15  C   LIG     1      26.522  21.758  24.493  1.00  0.00     0.001 C 
HETATM   16  C   LIG     1      27.945  22.119  24.914  1.00  0.00     0.006 C 
HETATM   17  C   LIG     1      27.902  22.115  26.453  1.00  0.00     0.006 C 
HETATM   18  C   LIG     1      26.429  21.842  26.854  1.00  0.00     0.000 C 
HETATM   19  C   LIG     1      24.626  22.485  18.989  1.00  0.00     0.037 C 
ENDROOT
BRANCH  18  20
HETATM   20  C   LIG     1      26.093  22.276  28.342  1.00  0.00    -0.013 C 
HETATM   21  C   LIG     1      25.989  21.132  29.363  1.00  0.00     0.010 C 
BRANCH  20  22
HETATM   22  C   LIG     1      27.091  23.353  28.880  1.00  0.00     0.015 C 
BRANCH  22  23
HETATM   23  C   LIG     1      26.609  24.804  28.699  1.00  0.00     0.110 C 
BRANCH  23  24
HETATM   24  C   LIG     1      27.166  25.742  29.724  1.00  0.00     0.139 C 
HETATM   25  O   LIG     1      27.786  25.286  30.723  1.00  0.00    -0.650 OA
BRANCH  24  26
HETATM   26  O   LIG     1      27.032  27.117  29.556  1.00  0.00    -0.776 OA
HETATM   27  H   LIG     1      26.176  27.512  29.183  1.00  0.00     0.167 HD
ENDBRANCH  24  26
ENDBRANCH  23  24
ENDBRANCH  22  23
ENDBRANCH  20  22
ENDBRANCH  18  20
BRANCH  12  28
HETATM   28  O   LIG     1      23.988  20.607  26.302  1.00  0.00    -0.395 OA
HETATM   29  H   LIG     1      24.660  19.927  26.036  1.00  0.00     0.210 HD
ENDBRANCH  12  28
BRANCH   1  30
HETATM   30  O   LIG     1      22.446  21.725  18.235  1.00  0.00    -0.396 OA
HETATM   31  H   LIG     1      22.413  21.850  17.251  1.00  0.00     0.210 HD
ENDBRANCH   1  30
TORSDOF 7
ENDMDL
MODEL 2
REMARK VINA RESULT:      -5.3      5.458     12.653
REMARK  7 active torsions:
REMARK  status: ('A' for Active; 'I' for Inactive)
REMARK    1  A    between atoms: O_1  and  C_2 
REMARK    2  A    between atoms: C_13  and  O_14 
REMARK    3  A    between atoms: C_20  and  C_21 
REMARK    4  A    between atoms: C_21  and  C_23 
REMARK    5  A    between atoms: C_23  and  C_24 
REMARK    6  A    between atoms: C_24  and  C_25 
REMARK    7  A    between atoms: C_25  and  O_26 
ROOT
HETATM    1  C   LIG     1      26.861  31.630  36.988  1.00  0.00     0.118 C 
HETATM    2  C   LIG     1      25.870  31.324  35.830  1.00  0.00     0.032 C 
HETATM    3  C   LIG     1      26.142  30.031  35.007  1.00  0.00     0.012 C 
HETATM    4  C   LIG     1      27.622  29.532  35.025  1.00  0.00    -0.036 C 
HETATM    5  C   LIG     1      27.787  28.517  36.199  1.00  0.00     0.016 C 
HETATM    6  C   LIG     1      28.527  30.799  35.223  1.00  0.00    -0.004 C 
HETATM    7  C   LIG     1      29.992  30.547  34.809  1.00  0.00     0.006 C 
HETATM    8  C   LIG     1      30.097  30.255  33.287  1.00  0.00     0.006 C 
HETATM    9  C   LIG     1      28.771  29.707  32.689  1.00  0.00    -0.005 C 
HETATM   10  C   LIG     1      28.057  28.770  33.702  1.00  0.00     0.001 C 
HETATM   11  C   LIG     1      26.958  27.934  33.001  1.00  0.00     0.038 C 
HETATM   12  C   LIG     1      27.536  26.970  31.916  1.00  0.00     0.127 C 
HETATM   13  C   LIG     1      28.842  27.514  31.209  1.00  0.00    -0.010 C 
HETATM   14  C   LIG     1      30.131  26.933  31.891  1.00  0.00     0.018 C 
HETATM   15  C   LIG     1      28.851  29.060  31.271  1.00  0.00     0.001 C 
HETATM   16  C   LIG     1      29.935  29.502  30.290  1.00  0.00     0.006 C 
HETATM   17  C   LIG     1      29.927  28.417  29.196  1.00  0.00     0.006 C 
HETATM   18  C   LIG     1      28.902  27.344  29.645  1.00  0.00     0.000 C 
HETATM   19  C   LIG     1      28.359  31.407  36.625  1.00  0.00     0.037 C 
ENDROOT
BRANCH  18  20
HETATM   20  C   LIG     1      29.102  25.946  28.924  1.00  0.00    -0.013 C 
HETATM   21  C   LIG     1      28.850  24.705  29.795  1.00  0.00     0.010 C 
BRANCH  20  22
HETATM   22  C   LIG     1      28.255  25.832  27.615  1.00  0.00     0.015 C 
BRANCH  22  23
HETATM   23  C   LIG     1      26.948  25.035  27.778  1.00  0.00     0.110 C 
BRANCH  23  24
HETATM   24  C   LIG     1      26.363  24.590  26.473  1.00  0.00     0.139 C 
HETATM   25  O   LIG     1      27.025  24.724  25.409  1.00  0.00    -0.650 OA
BRANCH  24  26
HETATM   26  O   LIG     1      25.105  23.995  26.441  1.00  0.00    -0.776 OA
HETATM   27  H   LIG     1      24.956  23.126  25.941  1.00  0.00     0.167 HD
ENDBRANCH  24  26
ENDBRANCH  23  24
ENDBRANCH  22  23
ENDBRANCH  20  22
ENDBRANCH  18  20
BRANCH  12  28
HETATM   28  O   LIG     1      26.530  26.706  30.971  1.00  0.00    -0.395 OA
HETATM   29  H   LIG     1      26.941  26.801  30.073  1.00  0.00     0.210 HD
ENDBRANCH  12  28
BRANCH   1  30
HETATM   30  O   LIG     1      26.526  30.883  38.129  1.00  0.00    -0.396 OA
HETATM   31  H   LIG     1      25.591  30.569  38.009  1.00  0.00     0.210 HD
ENDBRANCH   1  30
TORSDOF 7
ENDMDL
MODEL 3
REMARK VINA RESULT:      -5.3      2.018      3.306
REMARK  7 active torsions:
REMARK  status: ('A' for Active; 'I' for Inactive)
REMARK    1  A    between atoms: O_1  and  C_2 
REMARK    2  A    between atoms: C_13  and  O_14 
REMARK    3  A    between atoms: C_20  and  C_21 
REMARK    4  A    between atoms: C_21  and  C_23 
REMARK    5  A    between atoms: C_23  and  C_24 
REMARK    6  A    between atoms: C_24  and  C_25 
REMARK    7  A    between atoms: C_25  and  O_26 
ROOT
HETATM    1  C   LIG     1      22.826  20.378  18.399  1.00  0.00     0.118 C 
HETATM    2  C   LIG     1      23.227  21.879  18.462  1.00  0.00     0.032 C 
HETATM    3  C   LIG     1      24.500  22.223  19.289  1.00  0.00     0.012 C 
HETATM    4  C   LIG     1      24.870  21.188  20.398  1.00  0.00    -0.036 C 
HETATM    5  C   LIG     1      25.856  20.142  19.790  1.00  0.00     0.016 C 
HETATM    6  C   LIG     1      23.528  20.518  20.862  1.00  0.00    -0.004 C 
HETATM    7  C   LIG     1      23.658  19.830  22.236  1.00  0.00     0.006 C 
HETATM    8  C   LIG     1      23.955  20.868  23.352  1.00  0.00     0.006 C 
HETATM    9  C   LIG     1      24.621  22.163  22.806  1.00  0.00    -0.005 C 
HETATM   10  C   LIG     1      25.605  21.829  21.651  1.00  0.00     0.001 C 
HETATM   11  C   LIG     1      26.540  23.029  21.358  1.00  0.00     0.038 C 
HETATM   12  C   LIG     1      27.461  23.384  22.568  1.00  0.00     0.127 C 
HETATM   13  C   LIG     1      26.814  23.069  23.977  1.00  0.00    -0.010 C 
HETATM   14  C   LIG     1      27.276  21.665  24.504  1.00  0.00     0.018 C 
HETATM   15  C   LIG     1      25.272  23.117  23.854  1.00  0.00     0.001 C 
HETATM   16  C   LIG     1      24.749  23.149  25.288  1.00  0.00     0.006 C 
HETATM   17  C   LIG     1      25.842  23.894  26.079  1.00  0.00     0.006 C 
HETATM   18  C   LIG     1      26.993  24.178  25.081  1.00  0.00     0.000 C 
HETATM   19  C   LIG     1      22.924  19.631  19.762  1.00  0.00     0.037 C 
ENDROOT
BRANCH  18  20
HETATM   20  C   LIG     1      28.377  24.487  25.792  1.00  0.00    -0.013 C 
HETATM   21  C   LIG     1      29.065  25.795  25.372  1.00  0.00     0.010 C 
BRANCH  20  22
HETATM   22  C   LIG     1      28.259  24.449  27.350  1.00  0.00     0.015 C 
BRANCH  22  23
HETATM   23  C   LIG     1      28.423  25.822  28.028  1.00  0.00     0.110 C 
BRANCH  23  24
HETATM   24  C   LIG     1      27.414  26.070  29.106  1.00  0.00     0.139 C 
HETATM   25  O   LIG     1      26.959  25.104  29.776  1.00  0.00    -0.650 OA
BRANCH  24  26
HETATM   26  O   LIG     1      27.007  27.370  29.393  1.00  0.00    -0.776 OA
HETATM   27  H   LIG     1      26.797  28.023  28.647  1.00  0.00     0.167 HD
ENDBRANCH  24  26
ENDBRANCH  23  24
ENDBRANCH  22  23
ENDBRANCH  20  22
ENDBRANCH  18  20
BRANCH  12  28
HETATM   28  O   LIG     1      27.819  24.739  22.474  1.00  0.00    -0.395 OA
HETATM   29  H   LIG     1      27.273  25.232  23.140  1.00  0.00     0.210 HD
ENDBRANCH  12  28
BRANCH   1  30
HETATM   30  O   LIG     1      23.587  19.708  17.427  1.00  0.00    -0.396 OA
HETATM   31  H   LIG     1      24.484  20.134  17.414  1.00  0.00     0.210 HD
ENDBRANCH   1  30
TORSDOF 7
ENDMDL
MODEL 4
REMARK VINA RESULT:      -5.2      1.947      8.817
REMARK  7 active torsions:
REMARK  status: ('A' for Active; 'I' for Inactive)
REMARK    1  A    between atoms: O_1  and  C_2 
REMARK    2  A    between atoms: C_13  and  O_14 
REMARK    3  A    between atoms: C_20  and  C_21 
REMARK    4  A    between atoms: C_21  and  C_23 
REMARK    5  A    between atoms: C_23  and  C_24 
REMARK    6  A    between atoms: C_24  and  C_25 
REMARK    7  A    between atoms: C_25  and  O_26 
ROOT
HETATM    1  C   LIG     1      27.718  22.875  28.324  1.00  0.00     0.118 C 
HETATM    2  C   LIG     1      28.515  22.277  27.130  1.00  0.00     0.032 C 
HETATM    3  C   LIG     1      28.038  22.680  25.705  1.00  0.00     0.012 C 
HETATM    4  C   LIG     1      26.542  23.116  25.604  1.00  0.00    -0.036 C 
HETATM    5  C   LIG     1      26.464  24.664  25.794  1.00  0.00     0.016 C 
HETATM    6  C   LIG     1      25.769  22.354  26.739  1.00  0.00    -0.004 C 
HETATM    7  C   LIG     1      24.247  22.315  26.491  1.00  0.00     0.006 C 
HETATM    8  C   LIG     1      23.913  21.503  25.209  1.00  0.00     0.006 C 
HETATM    9  C   LIG     1      25.100  21.449  24.207  1.00  0.00    -0.005 C 
HETATM   10  C   LIG     1      25.875  22.796  24.200  1.00  0.00     0.001 C 
HETATM   11  C   LIG     1      26.802  22.893  22.963  1.00  0.00     0.038 C 
HETATM   12  C   LIG     1      26.011  22.889  21.616  1.00  0.00     0.127 C 
HETATM   13  C   LIG     1      24.664  22.061  21.669  1.00  0.00    -0.010 C 
HETATM   14  C   LIG     1      23.442  23.000  21.965  1.00  0.00     0.018 C 
HETATM   15  C   LIG     1      24.779  20.968  22.758  1.00  0.00     0.001 C 
HETATM   16  C   LIG     1      23.607  20.020  22.510  1.00  0.00     0.006 C 
HETATM   17  C   LIG     1      23.384  20.076  20.987  1.00  0.00     0.006 C 
HETATM   18  C   LIG     1      24.379  21.128  20.433  1.00  0.00     0.000 C 
HETATM   19  C   LIG     1      26.172  22.851  28.137  1.00  0.00     0.037 C 
ENDROOT
BRANCH  18  20
HETATM   20  C   LIG     1      23.979  21.676  18.999  1.00  0.00    -0.013 C 
HETATM   21  C   LIG     1      25.077  21.603  17.928  1.00  0.00     0.010 C 
BRANCH  20  22
HETATM   22  C   LIG     1      22.683  20.996  18.451  1.00  0.00     0.015 C 
BRANCH  22  23
HETATM   23  C   LIG     1      22.945  19.844  17.463  1.00  0.00     0.110 C 
BRANCH  23  24
HETATM   24  C   LIG     1      21.734  19.004  17.203  1.00  0.00     0.139 C 
HETATM   25  O   LIG     1      21.304  18.226  18.096  1.00  0.00    -0.650 OA
BRANCH  24  26
HETATM   26  O   LIG     1      21.062  19.109  15.988  1.00  0.00    -0.776 OA
HETATM   27  H   LIG     1      20.635  18.295  15.560  1.00  0.00     0.167 HD
ENDBRANCH  24  26
ENDBRANCH  23  24
ENDBRANCH  22  23
ENDBRANCH  20  22
ENDBRANCH  18  20
BRANCH  12  28
HETATM   28  O   LIG     1      26.856  22.404  20.603  1.00  0.00    -0.395 OA
HETATM   29  H   LIG     1      26.877  21.416  20.690  1.00  0.00     0.210 HD
ENDBRANCH  12  28
BRANCH   1  30
HETATM   30  O   LIG     1      28.150  24.184  28.594  1.00  0.00    -0.396 OA
HETATM   31  H   LIG     1      27.697  24.474  29.429  1.00  0.00     0.210 HD
ENDBRANCH   1  30
TORSDOF 7
ENDMDL
MODEL 5
REMARK VINA RESULT:      -5.2      2.962      5.121
REMARK  7 active torsions:
REMARK  status: ('A' for Active; 'I' for Inactive)
REMARK    1  A    between atoms: O_1  and  C_2 
REMARK    2  A    between atoms: C_13  and  O_14 
REMARK    3  A    between atoms: C_20  and  C_21 
REMARK    4  A    between atoms: C_21  and  C_23 
REMARK    5  A    between atoms: C_23  and  C_24 
REMARK    6  A    between atoms: C_24  and  C_25 
REMARK    7  A    between atoms: C_25  and  O_26 
ROOT
HETATM    1  C   LIG     1      28.767  26.212  17.654  1.00  0.00     0.118 C 
HETATM    2  C   LIG     1      28.202  26.783  18.985  1.00  0.00     0.032 C 
HETATM    3  C   LIG     1      28.020  25.770  20.153  1.00  0.00     0.012 C 
HETATM    4  C   LIG     1      27.852  24.279  19.718  1.00  0.00    -0.036 C 
HETATM    5  C   LIG     1      29.261  23.610  19.692  1.00  0.00     0.016 C 
HETATM    6  C   LIG     1      27.190  24.293  18.294  1.00  0.00    -0.004 C 
HETATM    7  C   LIG     1      26.548  22.938  17.930  1.00  0.00     0.006 C 
HETATM    8  C   LIG     1      25.365  22.610  18.881  1.00  0.00     0.006 C 
HETATM    9  C   LIG     1      25.477  23.338  20.250  1.00  0.00    -0.005 C 
HETATM   10  C   LIG     1      26.959  23.420  20.709  1.00  0.00     0.001 C 
HETATM   11  C   LIG     1      27.052  23.790  22.211  1.00  0.00     0.038 C 
HETATM   12  C   LIG     1      26.413  22.708  23.139  1.00  0.00     0.127 C 
HETATM   13  C   LIG     1      25.205  21.932  22.476  1.00  0.00    -0.010 C 
HETATM   14  C   LIG     1      25.689  20.580  21.841  1.00  0.00     0.018 C 
HETATM   15  C   LIG     1      24.550  22.828  21.398  1.00  0.00     0.001 C 
HETATM   16  C   LIG     1      23.218  22.160  21.065  1.00  0.00     0.006 C 
HETATM   17  C   LIG     1      22.790  21.482  22.380  1.00  0.00     0.006 C 
HETATM   18  C   LIG     1      23.942  21.710  23.391  1.00  0.00     0.000 C 
HETATM   19  C   LIG     1      28.146  24.850  17.226  1.00  0.00     0.037 C 
ENDROOT
BRANCH  18  20
HETATM   20  C   LIG     1      23.915  20.699  24.612  1.00  0.00    -0.013 C 
HETATM   21  C   LIG     1      25.185  19.857  24.809  1.00  0.00     0.010 C 
BRANCH  20  22
HETATM   22  C   LIG     1      23.559  21.410  25.958  1.00  0.00     0.015 C 
BRANCH  22  23
HETATM   23  C   LIG     1      24.531  21.100  27.111  1.00  0.00     0.110 C 
BRANCH  23  24
HETATM   24  C   LIG     1      25.237  22.314  27.629  1.00  0.00     0.139 C 
HETATM   25  O   LIG     1      26.017  22.215  28.614  1.00  0.00    -0.650 OA
BRANCH  24  26
HETATM   26  O   LIG     1      25.060  23.544  27.001  1.00  0.00    -0.776 OA
HETATM   27  H   LIG     1      25.468  23.724  26.091  1.00  0.00     0.167 HD
ENDBRANCH  24  26
ENDBRANCH  23  24
ENDBRANCH  22  23
ENDBRANCH  20  22
ENDBRANCH  18  20
BRANCH  12  28
HETATM   28  O   LIG     1      26.013  23.326  24.336  1.00  0.00    -0.395 OA
HETATM   29  H   LIG     1      26.131  22.659  25.062  1.00  0.00     0.210 HD
ENDBRANCH  12  28
BRANCH   1  30
HETATM   30  O   LIG     1      30.166  26.104  17.722  1.00  0.00    -0.396 OA
HETATM   31  H   LIG     1      30.433  25.377  17.101  1.00  0.00     0.210 HD
ENDBRANCH   1  30
TORSDOF 7
ENDMDL
MODEL 6
REMARK VINA RESULT:      -5.2      2.568      8.730
REMARK  7 active torsions:
REMARK  status: ('A' for Active; 'I' for Inactive)
REMARK    1  A    between atoms: O_1  and  C_2 
REMARK    2  A    between atoms: C_13  and  O_14 
REMARK    3  A    between atoms: C_20  and  C_21 
REMARK    4  A    between atoms: C_21  and  C_23 
REMARK    5  A    between atoms: C_23  and  C_24 
REMARK    6  A    between atoms: C_24  and  C_25 
REMARK    7  A    between atoms: C_25  and  O_26 
ROOT
HETATM    1  C   LIG     1      24.616  22.267  27.592  1.00  0.00     0.118 C 
HETATM    2  C   LIG     1      23.289  21.592  27.143  1.00  0.00     0.032 C 
HETATM    3  C   LIG     1      23.382  20.619  25.931  1.00  0.00     0.012 C 
HETATM    4  C   LIG     1      24.586  20.871  24.969  1.00  0.00    -0.036 C 
HETATM    5  C   LIG     1      25.788  19.994  25.440  1.00  0.00     0.016 C 
HETATM    6  C   LIG     1      24.920  22.403  25.049  1.00  0.00    -0.004 C 
HETATM    7  C   LIG     1      25.755  22.887  23.846  1.00  0.00     0.006 C 
HETATM    8  C   LIG     1      24.953  22.755  22.523  1.00  0.00     0.006 C 
HETATM    9  C   LIG     1      23.832  21.681  22.605  1.00  0.00    -0.005 C 
HETATM   10  C   LIG     1      24.295  20.469  23.461  1.00  0.00     0.001 C 
HETATM   11  C   LIG     1      23.362  19.252  23.244  1.00  0.00     0.038 C 
HETATM   12  C   LIG     1      23.390  18.726  21.773  1.00  0.00     0.127 C 
HETATM   13  C   LIG     1      23.664  19.854  20.698  1.00  0.00    -0.010 C 
HETATM   14  C   LIG     1      25.187  19.910  20.323  1.00  0.00     0.018 C 
HETATM   15  C   LIG     1      23.197  21.219  21.257  1.00  0.00     0.001 C 
HETATM   16  C   LIG     1      23.175  22.165  20.059  1.00  0.00     0.006 C 
HETATM   17  C   LIG     1      22.831  21.259  18.861  1.00  0.00     0.006 C 
HETATM   18  C   LIG     1      22.762  19.811  19.408  1.00  0.00     0.000 C 
HETATM   19  C   LIG     1      25.498  22.789  26.420  1.00  0.00     0.037 C 
ENDROOT
BRANCH  18  20
HETATM   20  C   LIG     1      22.905  18.706  18.278  1.00  0.00    -0.013 C 
HETATM   21  C   LIG     1      21.622  17.933  17.936  1.00  0.00     0.010 C 
BRANCH  20  22
HETATM   22  C   LIG     1      23.518  19.287  16.963  1.00  0.00     0.015 C 
BRANCH  22  23
HETATM   23  C   LIG     1      24.897  18.705  16.601  1.00  0.00     0.110 C 
BRANCH  23  24
HETATM   24  C   LIG     1      25.883  19.749  16.175  1.00  0.00     0.139 C 
HETATM   25  O   LIG     1      26.338  20.565  17.020  1.00  0.00    -0.650 OA
BRANCH  24  26
HETATM   26  O   LIG     1      26.324  19.793  14.856  1.00  0.00    -0.776 OA
HETATM   27  H   LIG     1      25.790  19.350  14.117  1.00  0.00     0.167 HD
ENDBRANCH  24  26
ENDBRANCH  23  24
ENDBRANCH  22  23
ENDBRANCH  20  22
ENDBRANCH  18  20
BRANCH  12  28
HETATM   28  O   LIG     1      22.175  18.070  21.510  1.00  0.00    -0.395 OA
HETATM   29  H   LIG     1      22.264  17.636  20.622  1.00  0.00     0.210 HD
ENDBRANCH  12  28
BRANCH   1  30
HETATM   30  O   LIG     1      25.360  21.394  28.403  1.00  0.00    -0.396 OA
HETATM   31  H   LIG     1      25.532  21.865  29.260  1.00  0.00     0.210 HD
ENDBRANCH   1  30
TORSDOF 7
ENDMDL
MODEL 7
REMARK VINA RESULT:      -5.1      2.168      8.265
REMARK  7 active torsions:
REMARK  status: ('A' for Active; 'I' for Inactive)
REMARK    1  A    between atoms: O_1  and  C_2 
REMARK    2  A    between atoms: C_13  and  O_14 
REMARK    3  A    between atoms: C_20  and  C_21 
REMARK    4  A    between atoms: C_21  and  C_23 
REMARK    5  A    between atoms: C_23  and  C_24 
REMARK    6  A    between atoms: C_24  and  C_25 
REMARK    7  A    between atoms: C_25  and  O_26 
ROOT
HETATM    1  C   LIG     1      29.495  27.911  29.860  1.00  0.00     0.118 C 
HETATM    2  C   LIG     1      27.968  27.943  29.567  1.00  0.00     0.032 C 
HETATM    3  C   LIG     1      27.298  26.579  29.230  1.00  0.00     0.012 C 
HETATM    4  C   LIG     1      28.259  25.491  28.655  1.00  0.00    -0.036 C 
HETATM    5  C   LIG     1      28.809  24.640  29.842  1.00  0.00     0.016 C 
HETATM    6  C   LIG     1      29.410  26.252  27.905  1.00  0.00    -0.004 C 
HETATM    7  C   LIG     1      30.167  25.344  26.914  1.00  0.00     0.006 C 
HETATM    8  C   LIG     1      29.232  24.872  25.767  1.00  0.00     0.006 C 
HETATM    9  C   LIG     1      27.731  24.894  26.170  1.00  0.00    -0.005 C 
HETATM   10  C   LIG     1      27.555  24.478  27.657  1.00  0.00     0.001 C 
HETATM   11  C   LIG     1      26.076  24.132  27.962  1.00  0.00     0.038 C 
HETATM   12  C   LIG     1      25.566  22.900  27.147  1.00  0.00     0.127 C 
HETATM   13  C   LIG     1      26.254  22.742  25.732  1.00  0.00    -0.010 C 
HETATM   14  C   LIG     1      27.457  21.736  25.805  1.00  0.00     0.018 C 
HETATM   15  C   LIG     1      26.740  24.126  25.241  1.00  0.00     0.001 C 
HETATM   16  C   LIG     1      27.066  23.944  23.760  1.00  0.00     0.006 C 
HETATM   17  C   LIG     1      26.084  22.858  23.282  1.00  0.00     0.006 C 
HETATM   18  C   LIG     1      25.294  22.394  24.533  1.00  0.00     0.000 C 
HETATM   19  C   LIG     1      30.316  27.020  28.881  1.00  0.00     0.037 C 
ENDROOT
BRANCH  18  20
HETATM   20  C   LIG     1      24.603  20.979  24.349  1.00  0.00    -0.013 C 
HETATM   21  C   LIG     1      23.328  20.747  25.174  1.00  0.00     0.010 C 
BRANCH  20  22
HETATM   22  C   LIG     1      24.306  20.659  22.848  1.00  0.00     0.015 C 
BRANCH  22  23
HETATM   23  C   LIG     1      22.886  21.041  22.391  1.00  0.00     0.110 C 
BRANCH  23  24
HETATM   24  C   LIG     1      22.866  22.175  21.414  1.00  0.00     0.139 C 
HETATM   25  O   LIG     1      23.784  22.282  20.557  1.00  0.00    -0.650 OA
BRANCH  24  26
HETATM   26  O   LIG     1      21.817  23.088  21.428  1.00  0.00    -0.776 OA
HETATM   27  H   LIG     1      21.109  23.075  20.703  1.00  0.00     0.167 HD
ENDBRANCH  24  26
ENDBRANCH  23  24
ENDBRANCH  22  23
ENDBRANCH  20  22
ENDBRANCH  18  20
BRANCH  12  28
HETATM   28  O   LIG     1      24.170  23.000  27.015  1.00  0.00    -0.395 OA
HETATM   29  H   LIG     1      23.804  23.179  27.920  1.00  0.00     0.210 HD
ENDBRANCH  12  28
BRANCH   1  30
HETATM   30  O   LIG     1      29.731  27.514  31.186  1.00  0.00    -0.396 OA
HETATM   31  H   LIG     1      30.628  27.857  31.438  1.00  0.00     0.210 HD
ENDBRANCH   1  30
TORSDOF 7
ENDMDL
MODEL 8
REMARK VINA RESULT:      -5.0      5.840     13.300
REMARK  7 active torsions:
REMARK  status: ('A' for Active; 'I' for Inactive)
REMARK    1  A    between atoms: O_1  and  C_2 
REMARK    2  A    between atoms: C_13  and  O_14 
REMARK    3  A    between atoms: C_20  and  C_21 
REMARK    4  A    between atoms: C_21  and  C_23 
REMARK    5  A    between atoms: C_23  and  C_24 
REMARK    6  A    between atoms: C_24  and  C_25 
REMARK    7  A    between atoms: C_25  and  O_26 
ROOT
HETATM    1  C   LIG     1      28.274  31.456  38.129  1.00  0.00     0.118 C 
HETATM    2  C   LIG     1      29.466  31.553  37.135  1.00  0.00     0.032 C 
HETATM    3  C   LIG     1      29.156  31.217  35.647  1.00  0.00     0.012 C 
HETATM    4  C   LIG     1      27.921  30.290  35.418  1.00  0.00    -0.036 C 
HETATM    5  C   LIG     1      26.660  31.187  35.215  1.00  0.00     0.016 C 
HETATM    6  C   LIG     1      27.789  29.385  36.695  1.00  0.00    -0.004 C 
HETATM    7  C   LIG     1      26.928  28.131  36.442  1.00  0.00     0.006 C 
HETATM    8  C   LIG     1      27.600  27.197  35.398  1.00  0.00     0.006 C 
HETATM    9  C   LIG     1      28.580  27.955  34.459  1.00  0.00    -0.005 C 
HETATM   10  C   LIG     1      28.038  29.373  34.128  1.00  0.00     0.001 C 
HETATM   11  C   LIG     1      28.791  29.984  32.920  1.00  0.00     0.038 C 
HETATM   12  C   LIG     1      28.581  29.168  31.604  1.00  0.00     0.127 C 
HETATM   13  C   LIG     1      28.365  27.619  31.842  1.00  0.00    -0.010 C 
HETATM   14  C   LIG     1      26.836  27.265  31.876  1.00  0.00     0.018 C 
HETATM   15  C   LIG     1      29.043  27.206  33.171  1.00  0.00     0.001 C 
HETATM   16  C   LIG     1      29.089  25.679  33.149  1.00  0.00     0.006 C 
HETATM   17  C   LIG     1      29.219  25.321  31.656  1.00  0.00     0.006 C 
HETATM   18  C   LIG     1      29.150  26.657  30.873  1.00  0.00     0.000 C 
HETATM   19  C   LIG     1      27.375  30.201  37.931  1.00  0.00     0.037 C 
ENDROOT
BRANCH  18  20
HETATM   20  C   LIG     1      28.780  26.468  29.342  1.00  0.00    -0.013 C 
HETATM   21  C   LIG     1      29.861  26.893  28.338  1.00  0.00     0.010 C 
BRANCH  20  22
HETATM   22  C   LIG     1      28.332  25.005  29.022  1.00  0.00     0.015 C 
BRANCH  22  23
HETATM   23  C   LIG     1      26.835  24.863  28.692  1.00  0.00     0.110 C 
BRANCH  23  24
HETATM   24  C   LIG     1      26.569  24.671  27.231  1.00  0.00     0.139 C 
HETATM   25  O   LIG     1      27.448  24.987  26.385  1.00  0.00    -0.650 OA
BRANCH  24  26
HETATM   26  O   LIG     1      25.366  24.110  26.810  1.00  0.00    -0.776 OA
HETATM   27  H   LIG     1      24.516  24.246  27.345  1.00  0.00     0.167 HD
ENDBRANCH  24  26
ENDBRANCH  23  24
ENDBRANCH  22  23
ENDBRANCH  20  22
ENDBRANCH  18  20
BRANCH  12  28
HETATM   28  O   LIG     1      29.679  29.395  30.757  1.00  0.00    -0.395 OA
HETATM   29  H   LIG     1      30.493  29.127  31.257  1.00  0.00     0.210 HD
ENDBRANCH  12  28
BRANCH   1  30
HETATM   30  O   LIG     1      27.493  32.622  38.072  1.00  0.00    -0.396 OA
HETATM   31  H   LIG     1      27.008  32.691  38.936  1.00  0.00     0.210 HD
ENDBRANCH   1  30
TORSDOF 7
ENDMDL
MODEL 9
REMARK VINA RESULT:      -4.9      4.420     11.344
REMARK  7 active torsions:
REMARK  status: ('A' for Active; 'I' for Inactive)
REMARK    1  A    between atoms: O_1  and  C_2 
REMARK    2  A    between atoms: C_13  and  O_14 
REMARK    3  A    between atoms: C_20  and  C_21 
REMARK    4  A    between atoms: C_21  and  C_23 
REMARK    5  A    between atoms: C_23  and  C_24 
REMARK    6  A    between atoms: C_24  and  C_25 
REMARK    7  A    between atoms: C_25  and  O_26 
ROOT
HETATM    1  C   LIG     1      27.234  29.789  35.806  1.00  0.00     0.118 C 
HETATM    2  C   LIG     1      26.184  29.547  34.685  1.00  0.00     0.032 C 
HETATM    3  C   LIG     1      26.510  28.423  33.659  1.00  0.00     0.012 C 
HETATM    4  C   LIG     1      28.027  28.089  33.500  1.00  0.00    -0.036 C 
HETATM    5  C   LIG     1      28.388  26.940  34.493  1.00  0.00     0.016 C 
HETATM    6  C   LIG     1      28.819  29.406  33.826  1.00  0.00    -0.004 C 
HETATM    7  C   LIG     1      30.261  29.376  33.280  1.00  0.00     0.006 C 
HETATM    8  C   LIG     1      30.267  29.318  31.728  1.00  0.00     0.006 C 
HETATM    9  C   LIG     1      28.955  28.722  31.145  1.00  0.00    -0.005 C 
HETATM   10  C   LIG     1      28.422  27.578  32.051  1.00  0.00     0.001 C 
HETATM   11  C   LIG     1      27.355  26.736  31.307  1.00  0.00     0.038 C 
HETATM   12  C   LIG     1      27.931  26.007  30.051  1.00  0.00     0.127 C 
HETATM   13  C   LIG     1      29.115  26.785  29.348  1.00  0.00    -0.010 C 
HETATM   14  C   LIG     1      30.506  26.255  29.845  1.00  0.00     0.018 C 
HETATM   15  C   LIG     1      28.979  28.298  29.643  1.00  0.00     0.001 C 
HETATM   16  C   LIG     1      29.929  28.991  28.668  1.00  0.00     0.006 C 
HETATM   17  C   LIG     1      29.936  28.080  27.426  1.00  0.00     0.006 C 
HETATM   18  C   LIG     1      29.060  26.850  27.776  1.00  0.00     0.000 C 
HETATM   19  C   LIG     1      28.710  29.783  35.312  1.00  0.00     0.037 C 
ENDROOT
BRANCH  18  20
HETATM   20  C   LIG     1      29.333  25.599  26.840  1.00  0.00    -0.013 C 
HETATM   21  C   LIG     1      29.455  24.245  27.555  1.00  0.00     0.010 C 
BRANCH  20  22
HETATM   22  C   LIG     1      28.277  25.479  25.694  1.00  0.00     0.015 C 
BRANCH  22  23
HETATM   23  C   LIG     1      27.641  24.083  25.567  1.00  0.00     0.110 C 
BRANCH  23  24
HETATM   24  C   LIG     1      26.155  24.093  25.756  1.00  0.00     0.139 C 
HETATM   25  O   LIG     1      25.415  23.466  24.951  1.00  0.00    -0.650 OA
BRANCH  24  26
HETATM   26  O   LIG     1      25.596  24.763  26.840  1.00  0.00    -0.776 OA
HETATM   27  H   LIG     1      24.799  25.376  26.715  1.00  0.00     0.167 HD
ENDBRANCH  24  26
ENDBRANCH  23  24
ENDBRANCH  22  23
ENDBRANCH  20  22
ENDBRANCH  18  20
BRANCH  12  28
HETATM   28  O   LIG     1      26.880  25.774  29.148  1.00  0.00    -0.395 OA
HETATM   29  H   LIG     1      26.810  24.792  29.028  1.00  0.00     0.210 HD
ENDBRANCH  12  28
BRANCH   1  30
HETATM   30  O   LIG     1      27.068  28.854  36.841  1.00  0.00    -0.396 OA
HETATM   31  H   LIG     1      26.812  29.362  37.655  1.00  0.00     0.210 HD
ENDBRANCH   1  30
TORSDOF 7
ENDMDL
MODEL 10
REMARK VINA RESULT:      -4.9      3.883      6.848
REMARK  7 active torsions:
REMARK  status: ('A' for Active; 'I' for Inactive)
REMARK    1  A    between atoms: O_1  and  C_2 
REMARK    2  A    between atoms: C_13  and  O_14 
REMARK    3  A    between atoms: C_20  and  C_21 
REMARK    4  A    between atoms: C_21  and  C_23 
REMARK    5  A    between atoms: C_23  and  C_24 
REMARK    6  A    between atoms: C_24  and  C_25 
REMARK    7  A    between atoms: C_25  and  O_26 
ROOT
HETATM    1  C   LIG     1      29.479  26.956  18.055  1.00  0.00     0.118 C 
HETATM    2  C   LIG     1      28.056  27.258  18.605  1.00  0.00     0.032 C 
HETATM    3  C   LIG     1      27.442  26.196  19.563  1.00  0.00     0.012 C 
HETATM    4  C   LIG     1      28.011  24.750  19.403  1.00  0.00    -0.036 C 
HETATM    5  C   LIG     1      29.209  24.579  20.389  1.00  0.00     0.016 C 
HETATM    6  C   LIG     1      28.466  24.603  17.908  1.00  0.00    -0.004 C 
HETATM    7  C   LIG     1      28.617  23.129  17.480  1.00  0.00     0.006 C 
HETATM    8  C   LIG     1      27.248  22.396  17.522  1.00  0.00     0.006 C 
HETATM    9  C   LIG     1      26.238  23.066  18.495  1.00  0.00    -0.005 C 
HETATM   10  C   LIG     1      26.967  23.609  19.755  1.00  0.00     0.001 C 
HETATM   11  C   LIG     1      25.954  23.930  20.883  1.00  0.00     0.038 C 
HETATM   12  C   LIG     1      25.191  22.663  21.386  1.00  0.00     0.127 C 
HETATM   13  C   LIG     1      24.977  21.562  20.271  1.00  0.00    -0.010 C 
HETATM   14  C   LIG     1      26.101  20.468  20.342  1.00  0.00     0.018 C 
HETATM   15  C   LIG     1      24.972  22.238  18.879  1.00  0.00     0.001 C 
HETATM   16  C   LIG     1      24.427  21.185  17.916  1.00  0.00     0.006 C 
HETATM   17  C   LIG     1      23.451  20.353  18.770  1.00  0.00     0.006 C 
HETATM   18  C   LIG     1      23.547  20.905  20.215  1.00  0.00     0.000 C 
HETATM   19  C   LIG     1      29.688  25.483  17.594  1.00  0.00     0.037 C 
ENDROOT
BRANCH  18  20
HETATM   20  C   LIG     1      23.007  19.893  21.310  1.00  0.00    -0.013 C 
HETATM   21  C   LIG     1      22.914  18.424  20.872  1.00  0.00     0.010 C 
BRANCH  20  22
HETATM   22  C   LIG     1      23.821  19.979  22.642  1.00  0.00     0.015 C 
BRANCH  22  23
HETATM   23  C   LIG     1      22.950  20.067  23.908  1.00  0.00     0.110 C 
BRANCH  23  24
HETATM   24  C   LIG     1      23.508  20.994  24.944  1.00  0.00     0.139 C 
HETATM   25  O   LIG     1      23.006  21.020  26.100  1.00  0.00    -0.650 OA
BRANCH  24  26
HETATM   26  O   LIG     1      24.603  21.798  24.641  1.00  0.00    -0.776 OA
HETATM   27  H   LIG     1      24.717  22.704  25.081  1.00  0.00     0.167 HD
ENDBRANCH  24  26
ENDBRANCH  23  24
ENDBRANCH  22  23
ENDBRANCH  20  22
ENDBRANCH  18  20
BRANCH  12  28
HETATM   28  O   LIG     1      23.960  23.069  21.929  1.00  0.00    -0.395 OA
HETATM   29  H   LIG     1      24.157  23.526  22.787  1.00  0.00     0.210 HD
ENDBRANCH  12  28
BRANCH   1  30
HETATM   30  O   LIG     1      30.455  27.307  19.002  1.00  0.00    -0.396 OA
HETATM   31  H   LIG     1      30.111  27.030  19.892  1.00  0.00     0.210 HD
ENDBRANCH   1  30
TORSDOF 7
ENDMDL
MODEL 11
REMARK VINA RESULT:      -4.8      2.091      3.336
REMARK  7 active torsions:
REMARK  status: ('A' for Active; 'I' for Inactive)
REMARK    1  A    between atoms: O_1  and  C_2 
REMARK    2  A    between atoms: C_13  and  O_14 
REMARK    3  A    between atoms: C_20  and  C_21 
REMARK    4  A    between atoms: C_21  and  C_23 
REMARK    5  A    between atoms: C_23  and  C_24 
REMARK    6  A    between atoms: C_24  and  C_25 
REMARK    7  A    between atoms: C_25  and  O_26 
ROOT
HETATM    1  C   LIG     1      25.975  24.290  18.356  1.00  0.00     0.118 C 
HETATM    2  C   LIG     1      26.216  25.436  19.379  1.00  0.00     0.032 C 
HETATM    3  C   LIG     1      26.985  25.057  20.677  1.00  0.00     0.012 C 
HETATM    4  C   LIG     1      26.906  23.550  21.080  1.00  0.00    -0.036 C 
HETATM    5  C   LIG     1      28.120  22.804  20.444  1.00  0.00     0.016 C 
HETATM    6  C   LIG     1      25.539  23.005  20.532  1.00  0.00    -0.004 C 
HETATM    7  C   LIG     1      25.107  21.696  21.225  1.00  0.00     0.006 C 
HETATM    8  C   LIG     1      24.830  21.932  22.735  1.00  0.00     0.006 C 
HETATM    9  C   LIG     1      25.584  23.170  23.297  1.00  0.00    -0.005 C 
HETATM   10  C   LIG     1      26.988  23.301  22.645  1.00  0.00     0.001 C 
HETATM   11  C   LIG     1      27.881  24.278  23.449  1.00  0.00     0.038 C 
HETATM   12  C   LIG     1      28.168  23.777  24.900  1.00  0.00     0.127 C 
HETATM   13  C   LIG     1      26.999  22.910  25.519  1.00  0.00    -0.010 C 
HETATM   14  C   LIG     1      27.276  21.377  25.324  1.00  0.00     0.018 C 
HETATM   15  C   LIG     1      25.661  23.304  24.850  1.00  0.00     0.001 C 
HETATM   16  C   LIG     1      24.570  22.690  25.725  1.00  0.00     0.006 C 
HETATM   17  C   LIG     1      25.167  22.698  27.145  1.00  0.00     0.006 C 
HETATM   18  C   LIG     1      26.616  23.233  27.012  1.00  0.00     0.000 C 
HETATM   19  C   LIG     1      25.523  22.945  18.996  1.00  0.00     0.037 C 
ENDROOT
BRANCH  18  20
HETATM   20  C   LIG     1      27.537  22.864  28.249  1.00  0.00    -0.013 C 
HETATM   21  C   LIG     1      28.942  22.347  27.904  1.00  0.00     0.010 C 
BRANCH  20  22
HETATM   22  C   LIG     1      27.663  24.047  29.263  1.00  0.00     0.015 C 
BRANCH  22  23
HETATM   23  C   LIG     1      26.934  25.331  28.826  1.00  0.00     0.110 C 
BRANCH  23  24
HETATM   24  C   LIG     1      27.047  26.441  29.824  1.00  0.00     0.139 C 
HETATM   25  O   LIG     1      26.938  26.193  31.055  1.00  0.00    -0.650 OA
BRANCH  24  26
HETATM   26  O   LIG     1      27.308  27.739  29.395  1.00  0.00    -0.776 OA
HETATM   27  H   LIG     1      27.983  28.319  29.880  1.00  0.00     0.167 HD
ENDBRANCH  24  26
ENDBRANCH  23  24
ENDBRANCH  22  23
ENDBRANCH  20  22
ENDBRANCH  18  20
BRANCH  12  28
HETATM   28  O   LIG     1      28.447  24.891  25.711  1.00  0.00    -0.395 OA
HETATM   29  H   LIG     1      28.615  24.550  26.627  1.00  0.00     0.210 HD
ENDBRANCH  12  28
BRANCH   1  30
HETATM   30  O   LIG     1      27.121  24.088  17.568  1.00  0.00    -0.396 OA
HETATM   31  H   LIG     1      27.544  23.245  17.879  1.00  0.00     0.210 HD
ENDBRANCH   1  30
TORSDOF 7
ENDMDL
MODEL 12
REMARK VINA RESULT:      -4.6      2.419      4.341
REMARK  7 active torsions:
REMARK  status: ('A' for Active; 'I' for Inactive)
REMARK    1  A    between atoms: O_1  and  C_2 
REMARK    2  A    between atoms: C_13  and  O_14 
REMARK    3  A    between atoms: C_20  and  C_21 
REMARK    4  A    between atoms: C_21  and  C_23 
REMARK    5  A    between atoms: C_23  and  C_24 
REMARK    6  A    between atoms: C_24  and  C_25 
REMARK    7  A    between atoms: C_25  and  O_26 
ROOT
HETATM    1  C   LIG     1      22.768  20.855  22.309  1.00  0.00     0.118 C 
HETATM    2  C   LIG     1      23.125  22.342  22.029  1.00  0.00     0.032 C 
HETATM    3  C   LIG     1      24.547  22.808  22.460  1.00  0.00     0.012 C 
HETATM    4  C   LIG     1      25.203  21.968  23.602  1.00  0.00    -0.036 C 
HETATM    5  C   LIG     1      26.048  20.827  22.954  1.00  0.00     0.016 C 
HETATM    6  C   LIG     1      24.031  21.396  24.476  1.00  0.00    -0.004 C 
HETATM    7  C   LIG     1      24.505  20.943  25.872  1.00  0.00     0.006 C 
HETATM    8  C   LIG     1      25.026  22.149  26.701  1.00  0.00     0.006 C 
HETATM    9  C   LIG     1      25.501  23.329  25.807  1.00  0.00    -0.005 C 
HETATM   10  C   LIG     1      26.193  22.800  24.521  1.00  0.00     0.001 C 
HETATM   11  C   LIG     1      26.993  23.927  23.821  1.00  0.00     0.038 C 
HETATM   12  C   LIG     1      28.165  24.470  24.701  1.00  0.00     0.127 C 
HETATM   13  C   LIG     1      27.881  24.399  26.255  1.00  0.00    -0.010 C 
HETATM   14  C   LIG     1      28.498  23.097  26.878  1.00  0.00     0.018 C 
HETATM   15  C   LIG     1      26.353  24.439  26.499  1.00  0.00     0.001 C 
HETATM   16  C   LIG     1      26.184  24.713  27.992  1.00  0.00     0.006 C 
HETATM   17  C   LIG     1      27.410  25.568  28.366  1.00  0.00     0.006 C 
HETATM   18  C   LIG     1      28.282  25.673  27.089  1.00  0.00     0.000 C 
HETATM   19  C   LIG     1      23.210  20.344  23.712  1.00  0.00     0.037 C 
ENDROOT
BRANCH  18  20
HETATM   20  C   LIG     1      29.785  26.084  27.388  1.00  0.00    -0.013 C 
HETATM   21  C   LIG     1      30.218  27.460  26.859  1.00  0.00     0.010 C 
BRANCH  20  22
HETATM   22  C   LIG     1      30.129  25.989  28.910  1.00  0.00     0.015 C 
BRANCH  22  23
HETATM   23  C   LIG     1      30.541  27.329  29.547  1.00  0.00     0.110 C 
BRANCH  23  24
HETATM   24  C   LIG     1      29.486  27.906  30.439  1.00  0.00     0.139 C 
HETATM   25  O   LIG     1      28.897  27.170  31.274  1.00  0.00    -0.650 OA
BRANCH  24  26
HETATM   26  O   LIG     1      29.183  29.263  30.370  1.00  0.00    -0.776 OA
HETATM   27  H   LIG     1      29.917  29.960  30.403  1.00  0.00     0.167 HD
ENDBRANCH  24  26
ENDBRANCH  23  24
ENDBRANCH  22  23
ENDBRANCH  20  22
ENDBRANCH  18  20
BRANCH  12  28
HETATM   28  O   LIG     1      28.447  25.788  24.305  1.00  0.00    -0.395 OA
HETATM   29  H   LIG     1      29.400  25.960  24.522  1.00  0.00     0.210 HD
ENDBRANCH  12  28
BRANCH   1  30
HETATM   30  O   LIG     1      23.298  20.027  21.306  1.00  0.00    -0.396 OA
HETATM   31  H   LIG     1      23.109  20.466  20.435  1.00  0.00     0.210 HD
ENDBRANCH   1  30
TORSDOF 7
ENDMDL
MODEL 13
REMARK VINA RESULT:      -4.4      3.100      4.761
REMARK  7 active torsions:
REMARK  status: ('A' for Active; 'I' for Inactive)
REMARK    1  A    between atoms: O_1  and  C_2 
REMARK    2  A    between atoms: C_13  and  O_14 
REMARK    3  A    between atoms: C_20  and  C_21 
REMARK    4  A    between atoms: C_21  and  C_23 
REMARK    5  A    between atoms: C_23  and  C_24 
REMARK    6  A    between atoms: C_24  and  C_25 
REMARK    7  A    between atoms: C_25  and  O_26 
ROOT
HETATM    1  C   LIG     1      26.446  24.136  18.474  1.00  0.00     0.118 C 
HETATM    2  C   LIG     1      26.385  25.535  19.149  1.00  0.00     0.032 C 
HETATM    3  C   LIG     1      27.422  25.806  20.278  1.00  0.00     0.012 C 
HETATM    4  C   LIG     1      27.975  24.532  20.992  1.00  0.00    -0.036 C 
HETATM    5  C   LIG     1      29.273  24.077  20.255  1.00  0.00     0.016 C 
HETATM    6  C   LIG     1      26.849  23.440  20.910  1.00  0.00    -0.004 C 
HETATM    7  C   LIG     1      27.047  22.311  21.942  1.00  0.00     0.006 C 
HETATM    8  C   LIG     1      26.926  22.856  23.391  1.00  0.00     0.006 C 
HETATM    9  C   LIG     1      27.233  24.377  23.489  1.00  0.00    -0.005 C 
HETATM   10  C   LIG     1      28.373  24.771  22.509  1.00  0.00     0.001 C 
HETATM   11  C   LIG     1      28.941  26.170  22.857  1.00  0.00     0.038 C 
HETATM   12  C   LIG     1      29.604  26.216  24.271  1.00  0.00     0.127 C 
HETATM   13  C   LIG     1      28.951  25.224  25.315  1.00  0.00    -0.010 C 
HETATM   14  C   LIG     1      29.752  23.876  25.383  1.00  0.00     0.018 C 
HETATM   15  C   LIG     1      27.480  24.957  24.916  1.00  0.00     0.001 C 
HETATM   16  C   LIG     1      26.841  24.291  26.133  1.00  0.00     0.006 C 
HETATM   17  C   LIG     1      27.593  24.889  27.337  1.00  0.00     0.006 C 
HETATM   18  C   LIG     1      28.698  25.808  26.756  1.00  0.00     0.000 C 
HETATM   19  C   LIG     1      26.632  22.952  19.468  1.00  0.00     0.037 C 
ENDROOT
BRANCH  18  20
HETATM   20  C   LIG     1      29.861  26.120  27.788  1.00  0.00    -0.013 C 
HETATM   21  C   LIG     1      30.236  27.602  27.941  1.00  0.00     0.010 C 
BRANCH  20  22
HETATM   22  C   LIG     1      29.570  25.518  29.201  1.00  0.00     0.015 C 
BRANCH  22  23
HETATM   23  C   LIG     1      29.278  26.571  30.286  1.00  0.00     0.110 C 
BRANCH  23  24
HETATM   24  C   LIG     1      27.843  26.595  30.712  1.00  0.00     0.139 C 
HETATM   25  O   LIG     1      27.309  27.683  31.062  1.00  0.00    -0.650 OA
BRANCH  24  26
HETATM   26  O   LIG     1      27.089  25.426  30.688  1.00  0.00    -0.776 OA
HETATM   27  H   LIG     1      27.539  24.519  30.742  1.00  0.00     0.167 HD
ENDBRANCH  24  26
ENDBRANCH  23  24
ENDBRANCH  22  23
ENDBRANCH  20  22
ENDBRANCH  18  20
BRANCH  12  28
HETATM   28  O   LIG     1      29.559  27.539  24.742  1.00  0.00    -0.395 OA
HETATM   29  H   LIG     1      30.247  27.619  25.452  1.00  0.00     0.210 HD
ENDBRANCH  12  28
BRANCH   1  30
HETATM   30  O   LIG     1      27.455  24.107  17.497  1.00  0.00    -0.396 OA
HETATM   31  H   LIG     1      27.521  23.171  17.173  1.00  0.00     0.210 HD
ENDBRANCH   1  30
TORSDOF 7
ENDMDL
MODEL 14
REMARK VINA RESULT:      -4.4      4.461     10.385
REMARK  7 active torsions:
REMARK  status: ('A' for Active; 'I' for Inactive)
REMARK    1  A    between atoms: O_1  and  C_2 
REMARK    2  A    between atoms: C_13  and  O_14 
REMARK    3  A    between atoms: C_20  and  C_21 
REMARK    4  A    between atoms: C_21  and  C_23 
REMARK    5  A    between atoms: C_23  and  C_24 
REMARK    6  A    between atoms: C_24  and  C_25 
REMARK    7  A    between atoms: C_25  and  O_26 
ROOT
HETATM    1  C   LIG     1      27.322  27.967  34.480  1.00  0.00     0.118 C 
HETATM    2  C   LIG     1      26.284  28.009  33.323  1.00  0.00     0.032 C 
HETATM    3  C   LIG     1      26.533  27.037  32.132  1.00  0.00     0.012 C 
HETATM    4  C   LIG     1      28.017  26.590  31.940  1.00  0.00    -0.036 C 
HETATM    5  C   LIG     1      28.243  25.268  32.737  1.00  0.00     0.016 C 
HETATM    6  C   LIG     1      28.918  27.756  32.483  1.00  0.00    -0.004 C 
HETATM    7  C   LIG     1      30.365  27.677  31.956  1.00  0.00     0.006 C 
HETATM    8  C   LIG     1      30.407  27.868  30.415  1.00  0.00     0.006 C 
HETATM    9  C   LIG     1      29.062  27.500  29.728  1.00  0.00    -0.005 C 
HETATM   10  C   LIG     1      28.401  26.281  30.431  1.00  0.00     0.001 C 
HETATM   11  C   LIG     1      27.281  25.676  29.549  1.00  0.00     0.038 C 
HETATM   12  C   LIG     1      27.822  25.104  28.199  1.00  0.00     0.127 C 
HETATM   13  C   LIG     1      29.090  25.869  27.644  1.00  0.00    -0.010 C 
HETATM   14  C   LIG     1      30.413  25.136  28.065  1.00  0.00     0.018 C 
HETATM   15  C   LIG     1      29.087  27.321  28.178  1.00  0.00     0.001 C 
HETATM   16  C   LIG     1      30.122  28.067  27.340  1.00  0.00     0.006 C 
HETATM   17  C   LIG     1      30.078  27.370  25.967  1.00  0.00     0.006 C 
HETATM   18  C   LIG     1      29.084  26.189  26.102  1.00  0.00     0.000 C 
HETATM   19  C   LIG     1      28.804  27.900  34.009  1.00  0.00     0.037 C 
ENDROOT
BRANCH  18  20
HETATM   20  C   LIG     1      29.266  25.083  24.980  1.00  0.00    -0.013 C 
HETATM   21  C   LIG     1      29.281  23.629  25.473  1.00  0.00     0.010 C 
BRANCH  20  22
HETATM   22  C   LIG     1      28.208  25.225  23.837  1.00  0.00     0.015 C 
BRANCH  22  23
HETATM   23  C   LIG     1      28.762  25.837  22.538  1.00  0.00     0.110 C 
BRANCH  23  24
HETATM   24  C   LIG     1      28.088  25.316  21.307  1.00  0.00     0.139 C 
HETATM   25  O   LIG     1      28.090  24.080  21.064  1.00  0.00    -0.650 OA
BRANCH  24  26
HETATM   26  O   LIG     1      27.429  26.193  20.450  1.00  0.00    -0.776 OA
HETATM   27  H   LIG     1      27.652  26.218  19.462  1.00  0.00     0.167 HD
ENDBRANCH  24  26
ENDBRANCH  23  24
ENDBRANCH  22  23
ENDBRANCH  20  22
ENDBRANCH  18  20
BRANCH  12  28
HETATM   28  O   LIG     1      26.778  25.121  27.258  1.00  0.00    -0.395 OA
HETATM   29  H   LIG     1      26.790  26.013  26.824  1.00  0.00     0.210 HD
ENDBRANCH  12  28
BRANCH   1  30
HETATM   30  O   LIG     1      27.043  26.899  35.349  1.00  0.00    -0.396 OA
HETATM   31  H   LIG     1      26.169  27.091  35.778  1.00  0.00     0.210 HD
ENDBRANCH   1  30
TORSDOF 7
ENDMDL
MODEL 15
REMARK VINA RESULT:      -4.4      2.289      4.313
REMARK  7 active torsions:
REMARK  status: ('A' for Active; 'I' for Inactive)
REMARK    1  A    between atoms: O_1  and  C_2 
REMARK    2  A    between atoms: C_13  and  O_14 
REMARK    3  A    between atoms: C_20  and  C_21 
REMARK    4  A    between atoms: C_21  and  C_23 
REMARK    5  A    between atoms: C_23  and  C_24 
REMARK    6  A    between atoms: C_24  and  C_25 
REMARK    7  A    between atoms: C_25  and  O_26 
ROOT
HETATM    1  C   LIG     1      26.614  24.229  18.253  1.00  0.00     0.118 C 
HETATM    2  C   LIG     1      26.560  25.400  19.274  1.00  0.00     0.032 C 
HETATM    3  C   LIG     1      27.200  25.136  20.668  1.00  0.00     0.012 C 
HETATM    4  C   LIG     1      27.278  23.634  21.088  1.00  0.00    -0.036 C 
HETATM    5  C   LIG     1      28.656  23.062  20.628  1.00  0.00     0.016 C 
HETATM    6  C   LIG     1      26.082  22.901  20.383  1.00  0.00    -0.004 C 
HETATM    7  C   LIG     1      25.749  21.547  21.042  1.00  0.00     0.006 C 
HETATM    8  C   LIG     1      25.249  21.747  22.499  1.00  0.00     0.006 C 
HETATM    9  C   LIG     1      25.746  23.079  23.127  1.00  0.00    -0.005 C 
HETATM   10  C   LIG     1      27.191  23.402  22.656  1.00  0.00     0.001 C 
HETATM   11  C   LIG     1      27.830  24.497  23.547  1.00  0.00     0.038 C 
HETATM   12  C   LIG     1      27.993  24.045  25.033  1.00  0.00     0.127 C 
HETATM   13  C   LIG     1      26.885  23.025  25.515  1.00  0.00    -0.010 C 
HETATM   14  C   LIG     1      27.393  21.545  25.389  1.00  0.00     0.018 C 
HETATM   15  C   LIG     1      25.602  23.227  24.673  1.00  0.00     0.001 C 
HETATM   16  C   LIG     1      24.503  22.469  25.415  1.00  0.00     0.006 C 
HETATM   17  C   LIG     1      24.905  22.565  26.899  1.00  0.00     0.006 C 
HETATM   18  C   LIG     1      26.271  23.296  26.940  1.00  0.00     0.000 C 
HETATM   19  C   LIG     1      26.273  22.835  18.859  1.00  0.00     0.037 C 
ENDROOT
BRANCH  18  20
HETATM   20  C   LIG     1      27.067  23.062  28.292  1.00  0.00    -0.013 C 
HETATM   21  C   LIG     1      27.131  24.266  29.245  1.00  0.00     0.010 C 
BRANCH  20  22
HETATM   22  C   LIG     1      26.540  21.817  29.077  1.00  0.00     0.015 C 
BRANCH  22  23
HETATM   23  C   LIG     1      27.504  20.616  29.074  1.00  0.00     0.110 C 
BRANCH  23  24
HETATM   24  C   LIG     1      26.884  19.364  28.537  1.00  0.00     0.139 C 
HETATM   25  O   LIG     1      25.727  19.399  28.038  1.00  0.00    -0.650 OA
BRANCH  24  26
HETATM   26  O   LIG     1      27.599  18.170  28.554  1.00  0.00    -0.776 OA
HETATM   27  H   LIG     1      27.657  17.589  27.726  1.00  0.00     0.167 HD
ENDBRANCH  24  26
ENDBRANCH  23  24
ENDBRANCH  22  23
ENDBRANCH  20  22
ENDBRANCH  18  20
BRANCH  12  28
HETATM   28  O   LIG     1      28.009  25.189  25.849  1.00  0.00    -0.395 OA
HETATM   29  H   LIG     1      27.798  24.892  26.772  1.00  0.00     0.210 HD
ENDBRANCH  12  28
BRANCH   1  30
HETATM   30  O   LIG     1      27.869  24.186  17.623  1.00  0.00    -0.396 OA
HETATM   31  H   LIG     1      28.536  24.520  18.278  1.00  0.00     0.210 HD
ENDBRANCH   1  30
TORSDOF 7
ENDMDL
MODEL 16
REMARK VINA RESULT:      -4.2      4.572      9.771
REMARK  7 active torsions:
REMARK  status: ('A' for Active; 'I' for Inactive)
REMARK    1  A    between atoms: O_1  and  C_2 
REMARK    2  A    between atoms: C_13  and  O_14 
REMARK    3  A    between atoms: C_20  and  C_21 
REMARK    4  A    between atoms: C_21  and  C_23 
REMARK    5  A    between atoms: C_23  and  C_24 
REMARK    6  A    between atoms: C_24  and  C_25 
REMARK    7  A    between atoms: C_25  and  O_26 
ROOT
HETATM    1  C   LIG     1      27.173  27.690  34.577  1.00  0.00     0.118 C 
HETATM    2  C   LIG     1      26.570  26.265  34.419  1.00  0.00     0.032 C 
HETATM    3  C   LIG     1      27.289  25.315  33.417  1.00  0.00     0.012 C 
HETATM    4  C   LIG     1      28.108  26.030  32.296  1.00  0.00    -0.036 C 
HETATM    5  C   LIG     1      29.578  26.205  32.793  1.00  0.00     0.016 C 
HETATM    6  C   LIG     1      27.415  27.415  32.038  1.00  0.00    -0.004 C 
HETATM    7  C   LIG     1      27.809  28.027  30.679  1.00  0.00     0.006 C 
HETATM    8  C   LIG     1      27.309  27.141  29.505  1.00  0.00     0.006 C 
HETATM    9  C   LIG     1      27.098  25.658  29.920  1.00  0.00    -0.005 C 
HETATM   10  C   LIG     1      28.183  25.212  30.938  1.00  0.00     0.001 C 
HETATM   11  C   LIG     1      28.217  23.669  31.068  1.00  0.00     0.038 C 
HETATM   12  C   LIG     1      28.617  22.961  29.734  1.00  0.00     0.127 C 
HETATM   13  C   LIG     1      28.168  23.746  28.436  1.00  0.00    -0.010 C 
HETATM   14  C   LIG     1      29.338  24.638  27.889  1.00  0.00     0.018 C 
HETATM   15  C   LIG     1      26.935  24.619  28.767  1.00  0.00     0.001 C 
HETATM   16  C   LIG     1      26.370  25.058  27.417  1.00  0.00     0.006 C 
HETATM   17  C   LIG     1      26.707  23.894  26.465  1.00  0.00     0.006 C 
HETATM   18  C   LIG     1      27.534  22.874  27.288  1.00  0.00     0.000 C 
HETATM   19  C   LIG     1      27.579  28.366  33.235  1.00  0.00     0.037 C 
ENDROOT
BRANCH  18  20
HETATM   20  C   LIG     1      28.371  21.873  26.387  1.00  0.00    -0.013 C 
HETATM   21  C   LIG     1      27.946  20.399  26.455  1.00  0.00     0.010 C 
BRANCH  20  22
HETATM   22  C   LIG     1      28.414  22.324  24.890  1.00  0.00     0.015 C 
BRANCH  22  23
HETATM   23  C   LIG     1      29.695  23.084  24.498  1.00  0.00     0.110 C 
BRANCH  23  24
HETATM   24  C   LIG     1      29.420  24.373  23.787  1.00  0.00     0.139 C 
HETATM   25  O   LIG     1      29.167  25.415  24.449  1.00  0.00    -0.650 OA
BRANCH  24  26
HETATM   26  O   LIG     1      29.481  24.428  22.398  1.00  0.00    -0.776 OA
HETATM   27  H   LIG     1      30.039  25.134  21.931  1.00  0.00     0.167 HD
ENDBRANCH  24  26
ENDBRANCH  23  24
ENDBRANCH  22  23
ENDBRANCH  20  22
ENDBRANCH  18  20
BRANCH  12  28
HETATM   28  O   LIG     1      28.083  21.661  29.741  1.00  0.00    -0.395 OA
HETATM   29  H   LIG     1      28.850  21.031  29.746  1.00  0.00     0.210 HD
ENDBRANCH  12  28
BRANCH   1  30
HETATM   30  O   LIG     1      28.270  27.663  35.454  1.00  0.00    -0.396 OA
HETATM   31  H   LIG     1      29.080  27.503  34.903  1.00  0.00     0.210 HD
ENDBRANCH   1  30
TORSDOF 7
ENDMDL
MODEL 17
REMARK VINA RESULT:      -4.1      3.519      7.769
REMARK  7 active torsions:
REMARK  status: ('A' for Active; 'I' for Inactive)
REMARK    1  A    between atoms: O_1  and  C_2 
REMARK    2  A    between atoms: C_13  and  O_14 
REMARK    3  A    between atoms: C_20  and  C_21 
REMARK    4  A    between atoms: C_21  and  C_23 
REMARK    5  A    between atoms: C_23  and  C_24 
REMARK    6  A    between atoms: C_24  and  C_25 
REMARK    7  A    between atoms: C_25  and  O_26 
ROOT
HETATM    1  C   LIG     1      22.035  19.861  27.869  1.00  0.00     0.118 C 
HETATM    2  C   LIG     1      21.257  19.455  26.586  1.00  0.00     0.032 C 
HETATM    3  C   LIG     1      22.114  19.140  25.325  1.00  0.00     0.012 C 
HETATM    4  C   LIG     1      23.525  19.807  25.298  1.00  0.00    -0.036 C 
HETATM    5  C   LIG     1      24.552  18.818  25.933  1.00  0.00     0.016 C 
HETATM    6  C   LIG     1      23.415  21.138  26.124  1.00  0.00    -0.004 C 
HETATM    7  C   LIG     1      24.563  22.120  25.815  1.00  0.00     0.006 C 
HETATM    8  C   LIG     1      24.503  22.599  24.338  1.00  0.00     0.006 C 
HETATM    9  C   LIG     1      23.755  21.598  23.414  1.00  0.00    -0.005 C 
HETATM   10  C   LIG     1      24.052  20.132  23.837  1.00  0.00     0.001 C 
HETATM   11  C   LIG     1      23.634  19.141  22.722  1.00  0.00     0.038 C 
HETATM   12  C   LIG     1      24.448  19.341  21.403  1.00  0.00     0.127 C 
HETATM   13  C   LIG     1      24.904  20.835  21.155  1.00  0.00    -0.010 C 
HETATM   14  C   LIG     1      26.370  21.064  21.665  1.00  0.00     0.018 C 
HETATM   15  C   LIG     1      23.927  21.795  21.875  1.00  0.00     0.001 C 
HETATM   16  C   LIG     1      24.227  23.182  21.311  1.00  0.00     0.006 C 
HETATM   17  C   LIG     1      24.687  22.916  19.865  1.00  0.00     0.006 C 
HETATM   18  C   LIG     1      24.722  21.377  19.687  1.00  0.00     0.000 C 
HETATM   19  C   LIG     1      23.201  20.863  27.622  1.00  0.00     0.037 C 
ENDROOT
BRANCH  18  20
HETATM   20  C   LIG     1      25.616  20.906  18.465  1.00  0.00    -0.013 C 
HETATM   21  C   LIG     1      24.884  20.119  17.367  1.00  0.00     0.010 C 
BRANCH  20  22
HETATM   22  C   LIG     1      26.391  22.096  17.811  1.00  0.00     0.015 C 
BRANCH  22  23
HETATM   23  C   LIG     1      27.822  22.285  18.345  1.00  0.00     0.110 C 
BRANCH  23  24
HETATM   24  C   LIG     1      28.271  23.714  18.335  1.00  0.00     0.139 C 
HETATM   25  O   LIG     1      27.423  24.640  18.444  1.00  0.00    -0.650 OA
BRANCH  24  26
HETATM   26  O   LIG     1      29.626  24.017  18.242  1.00  0.00    -0.776 OA
HETATM   27  H   LIG     1      30.074  24.116  17.339  1.00  0.00     0.167 HD
ENDBRANCH  24  26
ENDBRANCH  23  24
ENDBRANCH  22  23
ENDBRANCH  20  22
ENDBRANCH  18  20
BRANCH  12  28
HETATM   28  O   LIG     1      23.677  18.869  20.327  1.00  0.00    -0.395 OA
HETATM   29  H   LIG     1      22.740  18.799  20.647  1.00  0.00     0.210 HD
ENDBRANCH  12  28
BRANCH   1  30
HETATM   30  O   LIG     1      22.515  18.719  28.532  1.00  0.00    -0.396 OA
HETATM   31  H   LIG     1      22.919  18.130  27.843  1.00  0.00     0.210 HD
ENDBRANCH   1  30
TORSDOF 7
ENDMDL
MODEL 18
REMARK VINA RESULT:      -3.9      2.929      4.418
REMARK  7 active torsions:
REMARK  status: ('A' for Active; 'I' for Inactive)
REMARK    1  A    between atoms: O_1  and  C_2 
REMARK    2  A    between atoms: C_13  and  O_14 
REMARK    3  A    between atoms: C_20  and  C_21 
REMARK    4  A    between atoms: C_21  and  C_23 
REMARK    5  A    between atoms: C_23  and  C_24 
REMARK    6  A    between atoms: C_24  and  C_25 
REMARK    7  A    between atoms: C_25  and  O_26 
ROOT
HETATM    1  C   LIG     1      26.825  24.375  18.776  1.00  0.00     0.118 C 
HETATM    2  C   LIG     1      26.915  25.677  19.622  1.00  0.00     0.032 C 
HETATM    3  C   LIG     1      27.721  25.586  20.951  1.00  0.00     0.012 C 
HETATM    4  C   LIG     1      27.830  24.154  21.565  1.00  0.00    -0.036 C 
HETATM    5  C   LIG     1      29.131  23.482  21.025  1.00  0.00     0.016 C 
HETATM    6  C   LIG     1      26.545  23.369  21.120  1.00  0.00    -0.004 C 
HETATM    7  C   LIG     1      26.278  22.130  21.998  1.00  0.00     0.006 C 
HETATM    8  C   LIG     1      25.967  22.543  23.463  1.00  0.00     0.006 C 
HETATM    9  C   LIG     1      26.557  23.933  23.832  1.00  0.00    -0.005 C 
HETATM   10  C   LIG     1      27.936  24.143  23.148  1.00  0.00     0.001 C 
HETATM   11  C   LIG     1      28.696  25.330  23.792  1.00  0.00     0.038 C 
HETATM   12  C   LIG     1      29.038  25.081  25.297  1.00  0.00     0.127 C 
HETATM   13  C   LIG     1      27.984  24.172  26.048  1.00  0.00    -0.010 C 
HETATM   14  C   LIG     1      28.452  22.674  26.070  1.00  0.00     0.018 C 
HETATM   15  C   LIG     1      26.610  24.296  25.349  1.00  0.00     0.001 C 
HETATM   16  C   LIG     1      25.601  23.682  26.317  1.00  0.00     0.006 C 
HETATM   17  C   LIG     1      26.187  23.968  27.713  1.00  0.00     0.006 C 
HETATM   18  C   LIG     1      27.558  24.655  27.485  1.00  0.00     0.000 C 
HETATM   19  C   LIG     1      26.543  23.089  19.608  1.00  0.00     0.037 C 
ENDROOT
BRANCH  18  20
HETATM   20  C   LIG     1      28.512  24.584  28.750  1.00  0.00    -0.013 C 
HETATM   21  C   LIG     1      29.051  25.932  29.254  1.00  0.00     0.010 C 
BRANCH  20  22
HETATM   22  C   LIG     1      27.853  23.818  29.942  1.00  0.00     0.015 C 
BRANCH  22  23
HETATM   23  C   LIG     1      28.432  24.182  31.322  1.00  0.00     0.110 C 
BRANCH  23  24
HETATM   24  C   LIG     1      28.895  22.990  32.100  1.00  0.00     0.139 C 
HETATM   25  O   LIG     1      28.181  21.952  32.145  1.00  0.00    -0.650 OA
BRANCH  24  26
HETATM   26  O   LIG     1      30.130  23.014  32.742  1.00  0.00    -0.776 OA
HETATM   27  H   LIG     1      30.783  22.246  32.638  1.00  0.00     0.167 HD
ENDBRANCH  24  26
ENDBRANCH  23  24
ENDBRANCH  22  23
ENDBRANCH  20  22
ENDBRANCH  18  20
BRANCH  12  28
HETATM   28  O   LIG     1      29.171  26.325  25.936  1.00  0.00    -0.395 OA
HETATM   29  H   LIG     1      29.073  26.164  26.910  1.00  0.00     0.210 HD
ENDBRANCH  12  28
BRANCH   1  30
HETATM   30  O   LIG     1      27.990  24.207  18.010  1.00  0.00    -0.396 OA
HETATM   31  H   LIG     1      28.624  23.672  18.556  1.00  0.00     0.210 HD
ENDBRANCH   1  30
TORSDOF 7
ENDMDL
MODEL 19
REMARK VINA RESULT:      -3.9      2.135      3.468
REMARK  7 active torsions:
REMARK  status: ('A' for Active; 'I' for Inactive)
REMARK    1  A    between atoms: O_1  and  C_2 
REMARK    2  A    between atoms: C_13  and  O_14 
REMARK    3  A    between atoms: C_20  and  C_21 
REMARK    4  A    between atoms: C_21  and  C_23 
REMARK    5  A    between atoms: C_23  and  C_24 
REMARK    6  A    between atoms: C_24  and  C_25 
REMARK    7  A    between atoms: C_25  and  O_26 
ROOT
HETATM    1  C   LIG     1      25.125  21.539  18.345  1.00  0.00     0.118 C 
HETATM    2  C   LIG     1      25.157  23.023  18.809  1.00  0.00     0.032 C 
HETATM    3  C   LIG     1      26.090  23.354  20.010  1.00  0.00     0.012 C 
HETATM    4  C   LIG     1      26.408  22.152  20.955  1.00  0.00    -0.036 C 
HETATM    5  C   LIG     1      27.716  21.462  20.455  1.00  0.00     0.016 C 
HETATM    6  C   LIG     1      25.176  21.180  20.884  1.00  0.00    -0.004 C 
HETATM    7  C   LIG     1      25.127  20.205  22.078  1.00  0.00     0.006 C 
HETATM    8  C   LIG     1      24.914  20.971  23.413  1.00  0.00     0.006 C 
HETATM    9  C   LIG     1      25.387  22.450  23.338  1.00  0.00    -0.005 C 
HETATM   10  C   LIG     1      26.665  22.574  22.463  1.00  0.00     0.001 C 
HETATM   11  C   LIG     1      27.353  23.945  22.683  1.00  0.00     0.038 C 
HETATM   12  C   LIG     1      27.860  24.135  24.148  1.00  0.00     0.127 C 
HETATM   13  C   LIG     1      26.985  23.383  25.230  1.00  0.00    -0.010 C 
HETATM   14  C   LIG     1      27.608  21.986  25.581  1.00  0.00     0.018 C 
HETATM   15  C   LIG     1      25.544  23.209  24.691  1.00  0.00     0.001 C 
HETATM   16  C   LIG     1      24.703  22.802  25.899  1.00  0.00     0.006 C 
HETATM   17  C   LIG     1      25.385  23.496  27.093  1.00  0.00     0.006 C 
HETATM   18  C   LIG     1      26.648  24.199  26.534  1.00  0.00     0.000 C 
HETATM   19  C   LIG     1      25.061  20.506  19.508  1.00  0.00     0.037 C 
ENDROOT
BRANCH  18  20
HETATM   20  C   LIG     1      27.721  24.544  27.650  1.00  0.00    -0.013 C 
HETATM   21  C   LIG     1      28.676  25.702  27.322  1.00  0.00     0.010 C 
BRANCH  20  22
HETATM   22  C   LIG     1      27.058  24.806  29.042  1.00  0.00     0.015 C 
BRANCH  22  23
HETATM   23  C   LIG     1      27.843  24.224  30.232  1.00  0.00     0.110 C 
BRANCH  23  24
HETATM   24  C   LIG     1      27.959  22.732  30.188  1.00  0.00     0.139 C 
HETATM   25  O   LIG     1      26.950  22.031  29.911  1.00  0.00    -0.650 OA
BRANCH  24  26
HETATM   26  O   LIG     1      29.190  22.123  30.417  1.00  0.00    -0.776 OA
HETATM   27  H   LIG     1      29.271  21.113  30.441  1.00  0.00     0.167 HD
ENDBRANCH  24  26
ENDBRANCH  23  24
ENDBRANCH  22  23
ENDBRANCH  20  22
ENDBRANCH  18  20
BRANCH  12  28
HETATM   28  O   LIG     1      27.921  25.512  24.424  1.00  0.00    -0.395 OA
HETATM   29  H   LIG     1      28.672  25.883  23.892  1.00  0.00     0.210 HD
ENDBRANCH  12  28
BRANCH   1  30
HETATM   30  O   LIG     1      26.223  21.262  17.514  1.00  0.00    -0.396 OA
HETATM   31  H   LIG     1      26.753  20.550  17.959  1.00  0.00     0.210 HD
ENDBRANCH   1  30
TORSDOF 7
ENDMDL
