REMARK  5 active torsions:
REMARK  status: ('A' for Active; 'I' for Inactive)
REMARK    1  A    between atoms: C_13  and  O_14 
REMARK    2  A    between atoms: C_21  and  C_23 
REMARK    3  A    between atoms: C_21  and  O_22 
REMARK    4  A    between atoms: C_23  and  C_24 
REMARK    5  A    between atoms: C_24  and  O_25 
ROOT
HETATM    1  O   LIG     1      -5.655  -0.778   2.515  1.00  0.00    -0.289 OA
HETATM    2  C   LIG     1      -4.605  -0.416   1.923  1.00  0.00     0.172 C 
HETATM    3  C   LIG     1      -3.698   0.549   2.548  1.00  0.00     0.052 C 
HETATM    4  C   LIG     1      -2.652   1.026   1.867  1.00  0.00    -0.009 C 
HETATM    5  C   LIG     1      -2.479   0.766   0.371  1.00  0.00     0.004 C 
HETATM    6  C   LIG     1      -3.194   1.931  -0.352  1.00  0.00     0.025 C 
HETATM    7  C   LIG     1      -3.170  -0.556  -0.044  1.00  0.00    -0.060 C 
HETATM    8  C   LIG     1      -2.597  -1.413  -1.173  1.00  0.00     0.012 C 
HETATM    9  C   LIG     1      -2.946  -0.825  -2.547  1.00  0.00     0.015 C 
HETATM   10  C   LIG     1      -1.066  -1.655  -1.015  1.00  0.00     0.014 C 
HETATM   11  C   LIG     1      -0.409  -0.743   0.047  1.00  0.00    -0.001 C 
HETATM   12  C   LIG     1      -0.965   0.708  -0.065  1.00  0.00     0.035 C 
HETATM   13  C   LIG     1       0.013   1.754   0.556  1.00  0.00     0.124 C 
HETATM   14  C   LIG     1       1.378   1.770  -0.205  1.00  0.00     0.045 C 
HETATM   15  C   LIG     1       1.853   0.357  -0.720  1.00  0.00     0.001 C 
HETATM   16  C   LIG     1       1.552   0.254  -2.255  1.00  0.00     0.019 C 
HETATM   17  C   LIG     1       1.147  -0.757   0.075  1.00  0.00     0.002 C 
HETATM   18  C   LIG     1       1.912  -2.043  -0.229  1.00  0.00     0.009 C 
HETATM   19  C   LIG     1       3.354  -1.581  -0.515  1.00  0.00     0.047 C 
HETATM   20  C   LIG     1       3.365  -0.020  -0.487  1.00  0.00     0.128 C 
HETATM   21  C   LIG     1      -4.236  -1.013   0.637  1.00  0.00     0.059 C 
ENDROOT
BRANCH  20  22
HETATM   22  C   LIG     1       3.946   0.534   0.829  1.00  0.00     0.184 C 
HETATM   23  O   LIG     1       4.554   1.595   0.791  1.00  0.00    -0.292 OA
BRANCH  22  24
HETATM   24  C   LIG     1       3.822  -0.142   2.176  1.00  0.00     0.245 C 
BRANCH  24  25
HETATM   25  O   LIG     1       5.096  -0.400   2.702  1.00  0.00    -0.393 OA
HETATM   26  H   LIG     1       5.418   0.449   3.104  1.00  0.00     0.209 HD
ENDBRANCH  24  25
ENDBRANCH  22  24
ENDBRANCH  20  22
BRANCH  20  27
HETATM   27  O   LIG     1       4.158   0.463  -1.551  1.00  0.00    -0.381 OA
HETATM   28  H   LIG     1       5.072   0.087  -1.442  1.00  0.00     0.211 HD
ENDBRANCH  20  27
BRANCH  13  29
HETATM   29  O   LIG     1       0.244   1.465   1.913  1.00  0.00    -0.395 OA
HETATM   30  H   LIG     1       0.599   2.293   2.329  1.00  0.00     0.210 HD
ENDBRANCH  13  29
TORSDOF 5
