REMARK  2 active torsions:
REMARK  status: ('A' for Active; 'I' for Inactive)
REMARK    1  A    between atoms: O_1  and  C_2 
REMARK    2  A    between atoms: C_7  and  O_8 
ROOT
HETATM    1  C   LIG     1       1.861   0.252  -0.093  1.00  0.00     0.076 A 
HETATM    2  C   LIG     1       0.467   0.536  -0.077  1.00  0.00     0.010 A 
HETATM    3  C   LIG     1      -0.024   1.852  -0.208  1.00  0.00     0.015 A 
HETATM    4  C   LIG     1      -1.392   2.108  -0.190  1.00  0.00     0.004 A 
HETATM    5  C   LIG     1      -2.300   1.066  -0.040  1.00  0.00     0.037 A 
HETATM    6  C   LIG     1      -1.861  -0.252   0.093  1.00  0.00     0.076 A 
HETATM    7  C   LIG     1      -0.467  -0.536   0.077  1.00  0.00     0.010 A 
HETATM    8  C   LIG     1       0.024  -1.852   0.208  1.00  0.00     0.015 A 
HETATM    9  C   LIG     1       1.392  -2.108   0.190  1.00  0.00     0.004 A 
HETATM   10  C   LIG     1       2.300  -1.066   0.040  1.00  0.00     0.037 A 
ENDROOT
BRANCH   1  11
HETATM   11  O   LIG     1       2.846   1.234  -0.238  1.00  0.00    -0.360 OA
HETATM   12  H   LIG     1       2.667   2.222  -0.344  1.00  0.00     0.217 HD
ENDBRANCH   1  11
BRANCH   6  13
HETATM   13  O   LIG     1      -2.846  -1.234   0.238  1.00  0.00    -0.360 OA
HETATM   14  H   LIG     1      -2.667  -2.222   0.344  1.00  0.00     0.217 HD
ENDBRANCH   6  13
TORSDOF 2
