MODEL 1
REMARK VINA RESULT:      -7.3      0.000      0.000
REMARK  2 active torsions:
REMARK  status: ('A' for Active; 'I' for Inactive)
REMARK    1  A    between atoms: O_1  and  C_2 
REMARK    2  A    between atoms: C_7  and  O_8 
ROOT
HETATM    1  C   LIG     1      17.145  37.670  23.342  1.00  0.00     0.076 A 
HETATM    2  C   LIG     1      17.767  38.000  22.106  1.00  0.00     0.010 A 
HETATM    3  C   LIG     1      18.292  39.286  21.859  1.00  0.00     0.015 A 
HETATM    4  C   LIG     1      18.896  39.588  20.643  1.00  0.00     0.004 A 
HETATM    5  C   LIG     1      18.990  38.624  19.646  1.00  0.00     0.037 A 
HETATM    6  C   LIG     1      18.485  37.338  19.844  1.00  0.00     0.076 A 
HETATM    7  C   LIG     1      17.864  37.008  21.081  1.00  0.00     0.010 A 
HETATM    8  C   LIG     1      17.338  35.722  21.327  1.00  0.00     0.015 A 
HETATM    9  C   LIG     1      16.734  35.420  22.544  1.00  0.00     0.004 A 
HETATM   10  C   LIG     1      16.640  36.384  23.541  1.00  0.00     0.037 A 
ENDROOT
BRANCH   1  11
HETATM   11  O   LIG     1      17.005  38.574  24.400  1.00  0.00    -0.360 OA
HETATM   12  H   LIG     1      16.237  38.583  25.055  1.00  0.00     0.217 HD
ENDBRANCH   1  11
BRANCH   6  13
HETATM   13  O   LIG     1      18.625  36.434  18.787  1.00  0.00    -0.360 OA
HETATM   14  H   LIG     1      18.825  36.689  17.830  1.00  0.00     0.217 HD
ENDBRANCH   6  13
TORSDOF 2
ENDMDL
MODEL 2
REMARK VINA RESULT:      -7.3      0.011      4.475
REMARK  2 active torsions:
REMARK  status: ('A' for Active; 'I' for Inactive)
REMARK    1  A    between atoms: O_1  and  C_2 
REMARK    2  A    between atoms: C_7  and  O_8 
ROOT
HETATM    1  C   LIG     1      18.486  37.336  19.850  1.00  0.00     0.076 A 
HETATM    2  C   LIG     1      17.868  37.008  21.089  1.00  0.00     0.010 A 
HETATM    3  C   LIG     1      17.343  35.723  21.339  1.00  0.00     0.015 A 
HETATM    4  C   LIG     1      16.743  35.422  22.558  1.00  0.00     0.004 A 
HETATM    5  C   LIG     1      16.650  36.389  23.553  1.00  0.00     0.037 A 
HETATM    6  C   LIG     1      17.155  37.674  23.351  1.00  0.00     0.076 A 
HETATM    7  C   LIG     1      17.772  38.002  22.112  1.00  0.00     0.010 A 
HETATM    8  C   LIG     1      18.298  39.288  21.862  1.00  0.00     0.015 A 
HETATM    9  C   LIG     1      18.898  39.588  20.643  1.00  0.00     0.004 A 
HETATM   10  C   LIG     1      18.991  38.621  19.648  1.00  0.00     0.037 A 
ENDROOT
BRANCH   1  11
HETATM   11  O   LIG     1      18.624  36.430  18.793  1.00  0.00    -0.360 OA
HETATM   12  H   LIG     1      19.408  35.808  18.663  1.00  0.00     0.217 HD
ENDBRANCH   1  11
BRANCH   6  13
HETATM   13  O   LIG     1      17.017  38.580  24.407  1.00  0.00    -0.360 OA
HETATM   14  H   LIG     1      16.647  39.515  24.323  1.00  0.00     0.217 HD
ENDBRANCH   6  13
TORSDOF 2
ENDMDL
MODEL 3
REMARK VINA RESULT:      -7.1      2.089      3.010
REMARK  2 active torsions:
REMARK  status: ('A' for Active; 'I' for Inactive)
REMARK    1  A    between atoms: O_1  and  C_2 
REMARK    2  A    between atoms: C_7  and  O_8 
ROOT
HETATM    1  C   LIG     1      17.501  37.420  25.657  1.00  0.00     0.076 A 
HETATM    2  C   LIG     1      17.257  37.240  24.267  1.00  0.00     0.010 A 
HETATM    3  C   LIG     1      17.081  38.336  23.396  1.00  0.00     0.015 A 
HETATM    4  C   LIG     1      16.844  38.137  22.039  1.00  0.00     0.004 A 
HETATM    5  C   LIG     1      16.775  36.850  21.519  1.00  0.00     0.037 A 
HETATM    6  C   LIG     1      16.943  35.736  22.342  1.00  0.00     0.076 A 
HETATM    7  C   LIG     1      17.186  35.916  23.732  1.00  0.00     0.010 A 
HETATM    8  C   LIG     1      17.362  34.820  24.602  1.00  0.00     0.015 A 
HETATM    9  C   LIG     1      17.600  35.018  25.959  1.00  0.00     0.004 A 
HETATM   10  C   LIG     1      17.669  36.305  26.480  1.00  0.00     0.037 A 
ENDROOT
BRANCH   1  11
HETATM   11  O   LIG     1      17.586  38.674  26.269  1.00  0.00    -0.360 OA
HETATM   12  H   LIG     1      18.447  39.152  26.492  1.00  0.00     0.217 HD
ENDBRANCH   1  11
BRANCH   6  13
HETATM   13  O   LIG     1      16.858  34.481  21.730  1.00  0.00    -0.360 OA
HETATM   14  H   LIG     1      17.110  34.286  20.772  1.00  0.00     0.217 HD
ENDBRANCH   6  13
TORSDOF 2
ENDMDL
MODEL 4
REMARK VINA RESULT:      -7.1      2.100      4.994
REMARK  2 active torsions:
REMARK  status: ('A' for Active; 'I' for Inactive)
REMARK    1  A    between atoms: O_1  and  C_2 
REMARK    2  A    between atoms: C_7  and  O_8 
ROOT
HETATM    1  C   LIG     1      16.928  35.726  22.340  1.00  0.00     0.076 A 
HETATM    2  C   LIG     1      17.179  35.909  23.729  1.00  0.00     0.010 A 
HETATM    3  C   LIG     1      17.363  34.815  24.600  1.00  0.00     0.015 A 
HETATM    4  C   LIG     1      17.608  35.016  25.955  1.00  0.00     0.004 A 
HETATM    5  C   LIG     1      17.673  36.304  26.474  1.00  0.00     0.037 A 
HETATM    6  C   LIG     1      17.497  37.417  25.651  1.00  0.00     0.076 A 
HETATM    7  C   LIG     1      17.246  37.234  24.262  1.00  0.00     0.010 A 
HETATM    8  C   LIG     1      17.062  38.328  23.391  1.00  0.00     0.015 A 
HETATM    9  C   LIG     1      16.818  38.127  22.035  1.00  0.00     0.004 A 
HETATM   10  C   LIG     1      16.752  36.839  21.517  1.00  0.00     0.037 A 
ENDROOT
BRANCH   1  11
HETATM   11  O   LIG     1      16.844  34.470  21.731  1.00  0.00    -0.360 OA
HETATM   12  H   LIG     1      16.778  33.591  22.223  1.00  0.00     0.217 HD
ENDBRANCH   1  11
BRANCH   6  13
HETATM   13  O   LIG     1      17.581  38.673  26.260  1.00  0.00    -0.360 OA
HETATM   14  H   LIG     1      18.013  38.854  27.154  1.00  0.00     0.217 HD
ENDBRANCH   6  13
TORSDOF 2
ENDMDL
MODEL 5
REMARK VINA RESULT:      -7.0      1.652      3.398
REMARK  2 active torsions:
REMARK  status: ('A' for Active; 'I' for Inactive)
REMARK    1  A    between atoms: O_1  and  C_2 
REMARK    2  A    between atoms: C_7  and  O_8 
ROOT
HETATM    1  C   LIG     1      18.701  39.061  21.153  1.00  0.00     0.076 A 
HETATM    2  C   LIG     1      17.694  38.100  21.448  1.00  0.00     0.010 A 
HETATM    3  C   LIG     1      16.733  38.318  22.458  1.00  0.00     0.015 A 
HETATM    4  C   LIG     1      15.756  37.365  22.731  1.00  0.00     0.004 A 
HETATM    5  C   LIG     1      15.712  36.178  22.009  1.00  0.00     0.037 A 
HETATM    6  C   LIG     1      16.641  35.918  21.001  1.00  0.00     0.076 A 
HETATM    7  C   LIG     1      17.649  36.879  20.706  1.00  0.00     0.010 A 
HETATM    8  C   LIG     1      18.609  36.661  19.696  1.00  0.00     0.015 A 
HETATM    9  C   LIG     1      19.586  37.614  19.424  1.00  0.00     0.004 A 
HETATM   10  C   LIG     1      19.630  38.801  20.145  1.00  0.00     0.037 A 
ENDROOT
BRANCH   1  11
HETATM   11  O   LIG     1      18.823  40.281  21.826  1.00  0.00    -0.360 OA
HETATM   12  H   LIG     1      18.117  41.002  21.849  1.00  0.00     0.217 HD
ENDBRANCH   1  11
BRANCH   6  13
HETATM   13  O   LIG     1      16.519  34.698  20.329  1.00  0.00    -0.360 OA
HETATM   14  H   LIG     1      16.037  33.886  20.686  1.00  0.00     0.217 HD
ENDBRANCH   6  13
TORSDOF 2
ENDMDL
MODEL 6
REMARK VINA RESULT:      -7.0      1.647      3.013
REMARK  2 active torsions:
REMARK  status: ('A' for Active; 'I' for Inactive)
REMARK    1  A    between atoms: O_1  and  C_2 
REMARK    2  A    between atoms: C_7  and  O_8 
ROOT
HETATM    1  C   LIG     1      16.634  35.906  20.989  1.00  0.00     0.076 A 
HETATM    2  C   LIG     1      17.640  36.870  20.702  1.00  0.00     0.010 A 
HETATM    3  C   LIG     1      18.604  36.660  19.694  1.00  0.00     0.015 A 
HETATM    4  C   LIG     1      19.580  37.617  19.430  1.00  0.00     0.004 A 
HETATM    5  C   LIG     1      19.621  38.799  20.160  1.00  0.00     0.037 A 
HETATM    6  C   LIG     1      18.688  39.051  21.167  1.00  0.00     0.076 A 
HETATM    7  C   LIG     1      17.682  38.087  21.453  1.00  0.00     0.010 A 
HETATM    8  C   LIG     1      16.718  38.297  22.461  1.00  0.00     0.015 A 
HETATM    9  C   LIG     1      15.742  37.340  22.726  1.00  0.00     0.004 A 
HETATM   10  C   LIG     1      15.701  36.157  21.995  1.00  0.00     0.037 A 
ENDROOT
BRANCH   1  11
HETATM   11  O   LIG     1      16.516  34.690  20.308  1.00  0.00    -0.360 OA
HETATM   12  H   LIG     1      16.877  33.806  20.636  1.00  0.00     0.217 HD
ENDBRANCH   1  11
BRANCH   6  13
HETATM   13  O   LIG     1      18.806  40.267  21.847  1.00  0.00    -0.360 OA
HETATM   14  H   LIG     1      19.679  40.691  22.128  1.00  0.00     0.217 HD
ENDBRANCH   6  13
TORSDOF 2
ENDMDL
MODEL 7
REMARK VINA RESULT:      -6.7      2.113      4.158
REMARK  2 active torsions:
REMARK  status: ('A' for Active; 'I' for Inactive)
REMARK    1  A    between atoms: O_1  and  C_2 
REMARK    2  A    between atoms: C_7  and  O_8 
ROOT
HETATM    1  C   LIG     1      17.269  37.588  22.038  1.00  0.00     0.076 A 
HETATM    2  C   LIG     1      17.385  37.360  23.438  1.00  0.00     0.010 A 
HETATM    3  C   LIG     1      17.629  38.414  24.344  1.00  0.00     0.015 A 
HETATM    4  C   LIG     1      17.738  38.170  25.710  1.00  0.00     0.004 A 
HETATM    5  C   LIG     1      17.610  36.877  26.205  1.00  0.00     0.037 A 
HETATM    6  C   LIG     1      17.369  35.803  25.347  1.00  0.00     0.076 A 
HETATM    7  C   LIG     1      17.253  36.030  23.948  1.00  0.00     0.010 A 
HETATM    8  C   LIG     1      17.010  34.976  23.042  1.00  0.00     0.015 A 
HETATM    9  C   LIG     1      16.900  35.221  21.676  1.00  0.00     0.004 A 
HETATM   10  C   LIG     1      17.028  36.513  21.181  1.00  0.00     0.037 A 
ENDROOT
BRANCH   1  11
HETATM   11  O   LIG     1      17.384  38.851  21.451  1.00  0.00    -0.360 OA
HETATM   12  H   LIG     1      18.226  39.221  21.034  1.00  0.00     0.217 HD
ENDBRANCH   1  11
BRANCH   6  13
HETATM   13  O   LIG     1      17.254  34.539  25.935  1.00  0.00    -0.360 OA
HETATM   14  H   LIG     1      17.664  34.272  26.818  1.00  0.00     0.217 HD
ENDBRANCH   6  13
TORSDOF 2
ENDMDL
MODEL 8
REMARK VINA RESULT:      -6.7      2.064      3.585
REMARK  2 active torsions:
REMARK  status: ('A' for Active; 'I' for Inactive)
REMARK    1  A    between atoms: O_1  and  C_2 
REMARK    2  A    between atoms: C_7  and  O_8 
ROOT
HETATM    1  C   LIG     1      17.348  35.815  25.257  1.00  0.00     0.076 A 
HETATM    2  C   LIG     1      17.264  36.038  23.854  1.00  0.00     0.010 A 
HETATM    3  C   LIG     1      17.011  34.986  22.949  1.00  0.00     0.015 A 
HETATM    4  C   LIG     1      16.932  35.226  21.580  1.00  0.00     0.004 A 
HETATM    5  C   LIG     1      17.103  36.513  21.081  1.00  0.00     0.037 A 
HETATM    6  C   LIG     1      17.355  37.585  21.939  1.00  0.00     0.076 A 
HETATM    7  C   LIG     1      17.440  37.361  23.341  1.00  0.00     0.010 A 
HETATM    8  C   LIG     1      17.692  38.413  24.246  1.00  0.00     0.015 A 
HETATM    9  C   LIG     1      17.772  38.173  25.615  1.00  0.00     0.004 A 
HETATM   10  C   LIG     1      17.600  36.887  26.114  1.00  0.00     0.037 A 
ENDROOT
BRANCH   1  11
HETATM   11  O   LIG     1      17.191  34.557  25.848  1.00  0.00    -0.360 OA
HETATM   12  H   LIG     1      16.397  34.275  26.404  1.00  0.00     0.217 HD
ENDBRANCH   1  11
BRANCH   6  13
HETATM   13  O   LIG     1      17.513  38.842  21.348  1.00  0.00    -0.360 OA
HETATM   14  H   LIG     1      16.776  39.522  21.229  1.00  0.00     0.217 HD
ENDBRANCH   6  13
TORSDOF 2
ENDMDL
MODEL 9
REMARK VINA RESULT:      -6.4      1.088      3.491
REMARK  2 active torsions:
REMARK  status: ('A' for Active; 'I' for Inactive)
REMARK    1  A    between atoms: O_1  and  C_2 
REMARK    2  A    between atoms: C_7  and  O_8 
ROOT
HETATM    1  C   LIG     1      17.341  36.289  20.089  1.00  0.00     0.076 A 
HETATM    2  C   LIG     1      17.542  37.220  21.146  1.00  0.00     0.010 A 
HETATM    3  C   LIG     1      18.402  38.329  21.005  1.00  0.00     0.015 A 
HETATM    4  C   LIG     1      18.584  39.228  22.052  1.00  0.00     0.004 A 
HETATM    5  C   LIG     1      17.919  39.045  23.259  1.00  0.00     0.037 A 
HETATM    6  C   LIG     1      17.058  37.962  23.445  1.00  0.00     0.076 A 
HETATM    7  C   LIG     1      16.858  37.032  22.388  1.00  0.00     0.010 A 
HETATM    8  C   LIG     1      15.998  35.922  22.529  1.00  0.00     0.015 A 
HETATM    9  C   LIG     1      15.816  35.023  21.482  1.00  0.00     0.004 A 
HETATM   10  C   LIG     1      16.480  35.206  20.275  1.00  0.00     0.037 A 
ENDROOT
BRANCH   1  11
HETATM   11  O   LIG     1      17.966  36.392  18.843  1.00  0.00    -0.360 OA
HETATM   12  H   LIG     1      17.490  36.563  17.969  1.00  0.00     0.217 HD
ENDBRANCH   1  11
BRANCH   6  13
HETATM   13  O   LIG     1      16.433  37.860  24.692  1.00  0.00    -0.360 OA
HETATM   14  H   LIG     1      15.644  37.264  24.896  1.00  0.00     0.217 HD
ENDBRANCH   6  13
TORSDOF 2
ENDMDL
MODEL 10
REMARK VINA RESULT:      -6.4      1.081      2.980
REMARK  2 active torsions:
REMARK  status: ('A' for Active; 'I' for Inactive)
REMARK    1  A    between atoms: O_1  and  C_2 
REMARK    2  A    between atoms: C_7  and  O_8 
ROOT
HETATM    1  C   LIG     1      17.068  37.988  23.369  1.00  0.00     0.076 A 
HETATM    2  C   LIG     1      16.874  37.056  22.312  1.00  0.00     0.010 A 
HETATM    3  C   LIG     1      16.014  35.945  22.450  1.00  0.00     0.015 A 
HETATM    4  C   LIG     1      15.839  35.046  21.402  1.00  0.00     0.004 A 
HETATM    5  C   LIG     1      16.512  35.227  20.200  1.00  0.00     0.037 A 
HETATM    6  C   LIG     1      17.372  36.311  20.017  1.00  0.00     0.076 A 
HETATM    7  C   LIG     1      17.566  37.243  21.075  1.00  0.00     0.010 A 
HETATM    8  C   LIG     1      18.425  38.353  20.937  1.00  0.00     0.015 A 
HETATM    9  C   LIG     1      18.601  39.253  21.984  1.00  0.00     0.004 A 
HETATM   10  C   LIG     1      17.928  39.072  23.187  1.00  0.00     0.037 A 
ENDROOT
BRANCH   1  11
HETATM   11  O   LIG     1      16.435  37.886  24.612  1.00  0.00    -0.360 OA
HETATM   12  H   LIG     1      16.710  37.256  25.352  1.00  0.00     0.217 HD
ENDBRANCH   1  11
BRANCH   6  13
HETATM   13  O   LIG     1      18.005  36.412  18.775  1.00  0.00    -0.360 OA
HETATM   14  H   LIG     1      17.976  35.709  18.051  1.00  0.00     0.217 HD
ENDBRANCH   6  13
TORSDOF 2
ENDMDL
MODEL 11
REMARK VINA RESULT:      -6.4      7.572      9.425
REMARK  2 active torsions:
REMARK  status: ('A' for Active; 'I' for Inactive)
REMARK    1  A    between atoms: O_1  and  C_2 
REMARK    2  A    between atoms: C_7  and  O_8 
ROOT
HETATM    1  C   LIG     1      15.934  31.560  13.783  1.00  0.00     0.076 A 
HETATM    2  C   LIG     1      15.605  32.206  15.007  1.00  0.00     0.010 A 
HETATM    3  C   LIG     1      16.224  33.410  15.402  1.00  0.00     0.015 A 
HETATM    4  C   LIG     1      15.887  34.025  16.604  1.00  0.00     0.004 A 
HETATM    5  C   LIG     1      14.931  33.459  17.439  1.00  0.00     0.037 A 
HETATM    6  C   LIG     1      14.291  32.268  17.091  1.00  0.00     0.076 A 
HETATM    7  C   LIG     1      14.621  31.623  15.867  1.00  0.00     0.010 A 
HETATM    8  C   LIG     1      14.002  30.418  15.472  1.00  0.00     0.015 A 
HETATM    9  C   LIG     1      14.339  29.803  14.270  1.00  0.00     0.004 A 
HETATM   10  C   LIG     1      15.295  30.370  13.435  1.00  0.00     0.037 A 
ENDROOT
BRANCH   1  11
HETATM   11  O   LIG     1      16.882  32.055  12.882  1.00  0.00    -0.360 OA
HETATM   12  H   LIG     1      17.768  31.617  12.675  1.00  0.00     0.217 HD
ENDBRANCH   1  11
BRANCH   6  13
HETATM   13  O   LIG     1      13.344  31.773  17.992  1.00  0.00    -0.360 OA
HETATM   14  H   LIG     1      12.898  30.870  17.925  1.00  0.00     0.217 HD
ENDBRANCH   6  13
TORSDOF 2
ENDMDL
MODEL 12
REMARK VINA RESULT:      -6.4      7.968      9.462
REMARK  2 active torsions:
REMARK  status: ('A' for Active; 'I' for Inactive)
REMARK    1  A    between atoms: O_1  and  C_2 
REMARK    2  A    between atoms: C_7  and  O_8 
ROOT
HETATM    1  C   LIG     1      13.322  30.413  15.781  1.00  0.00     0.076 A 
HETATM    2  C   LIG     1      14.291  31.453  15.840  1.00  0.00     0.010 A 
HETATM    3  C   LIG     1      14.233  32.467  16.819  1.00  0.00     0.015 A 
HETATM    4  C   LIG     1      15.191  33.476  16.859  1.00  0.00     0.004 A 
HETATM    5  C   LIG     1      16.225  33.501  15.929  1.00  0.00     0.037 A 
HETATM    6  C   LIG     1      16.323  32.519  14.942  1.00  0.00     0.076 A 
HETATM    7  C   LIG     1      15.354  31.479  14.883  1.00  0.00     0.010 A 
HETATM    8  C   LIG     1      15.412  30.465  13.904  1.00  0.00     0.015 A 
HETATM    9  C   LIG     1      14.453  29.457  13.864  1.00  0.00     0.004 A 
HETATM   10  C   LIG     1      13.420  29.432  14.794  1.00  0.00     0.037 A 
ENDROOT
BRANCH   1  11
HETATM   11  O   LIG     1      12.249  30.308  16.672  1.00  0.00    -0.360 OA
HETATM   12  H   LIG     1      11.711  31.086  17.024  1.00  0.00     0.217 HD
ENDBRANCH   1  11
BRANCH   6  13
HETATM   13  O   LIG     1      17.395  32.625  14.051  1.00  0.00    -0.360 OA
HETATM   14  H   LIG     1      17.928  33.466  13.884  1.00  0.00     0.217 HD
ENDBRANCH   6  13
TORSDOF 2
ENDMDL
MODEL 13
REMARK VINA RESULT:      -6.4      7.683      9.284
REMARK  2 active torsions:
REMARK  status: ('A' for Active; 'I' for Inactive)
REMARK    1  A    between atoms: O_1  and  C_2 
REMARK    2  A    between atoms: C_7  and  O_8 
ROOT
HETATM    1  C   LIG     1      14.236  32.121  17.014  1.00  0.00     0.076 A 
HETATM    2  C   LIG     1      14.601  31.497  15.789  1.00  0.00     0.010 A 
HETATM    3  C   LIG     1      14.005  30.291  15.363  1.00  0.00     0.015 A 
HETATM    4  C   LIG     1      14.377  29.697  14.161  1.00  0.00     0.004 A 
HETATM    5  C   LIG     1      15.348  30.285  13.357  1.00  0.00     0.037 A 
HETATM    6  C   LIG     1      15.965  31.477  13.737  1.00  0.00     0.076 A 
HETATM    7  C   LIG     1      15.599  32.102  14.962  1.00  0.00     0.010 A 
HETATM    8  C   LIG     1      16.195  33.308  15.387  1.00  0.00     0.015 A 
HETATM    9  C   LIG     1      15.823  33.902  16.590  1.00  0.00     0.004 A 
HETATM   10  C   LIG     1      14.853  33.314  17.393  1.00  0.00     0.037 A 
ENDROOT
BRANCH   1  11
HETATM   11  O   LIG     1      13.272  31.604  17.885  1.00  0.00    -0.360 OA
HETATM   12  H   LIG     1      12.530  32.140  18.311  1.00  0.00     0.217 HD
ENDBRANCH   1  11
BRANCH   6  13
HETATM   13  O   LIG     1      16.929  31.995  12.866  1.00  0.00    -0.360 OA
HETATM   14  H   LIG     1      17.896  32.156  13.103  1.00  0.00     0.217 HD
ENDBRANCH   6  13
TORSDOF 2
ENDMDL
MODEL 14
REMARK VINA RESULT:      -6.2      7.559      9.338
REMARK  2 active torsions:
REMARK  status: ('A' for Active; 'I' for Inactive)
REMARK    1  A    between atoms: O_1  and  C_2 
REMARK    2  A    between atoms: C_7  and  O_8 
ROOT
HETATM    1  C   LIG     1      14.511  30.379  14.465  1.00  0.00     0.076 A 
HETATM    2  C   LIG     1      15.227  31.527  14.906  1.00  0.00     0.010 A 
HETATM    3  C   LIG     1      16.378  31.989  14.233  1.00  0.00     0.015 A 
HETATM    4  C   LIG     1      17.063  33.114  14.682  1.00  0.00     0.004 A 
HETATM    5  C   LIG     1      16.623  33.803  15.807  1.00  0.00     0.037 A 
HETATM    6  C   LIG     1      15.490  33.383  16.505  1.00  0.00     0.076 A 
HETATM    7  C   LIG     1      14.774  32.235  16.063  1.00  0.00     0.010 A 
HETATM    8  C   LIG     1      13.623  31.774  16.736  1.00  0.00     0.015 A 
HETATM    9  C   LIG     1      12.938  30.648  16.287  1.00  0.00     0.004 A 
HETATM   10  C   LIG     1      13.378  29.960  15.163  1.00  0.00     0.037 A 
ENDROOT
BRANCH   1  11
HETATM   11  O   LIG     1      14.880  29.625  13.346  1.00  0.00    -0.360 OA
HETATM   12  H   LIG     1      14.447  29.690  12.436  1.00  0.00     0.217 HD
ENDBRANCH   1  11
BRANCH   6  13
HETATM   13  O   LIG     1      15.122  34.138  17.623  1.00  0.00    -0.360 OA
HETATM   14  H   LIG     1      14.719  35.063  17.590  1.00  0.00     0.217 HD
ENDBRANCH   6  13
TORSDOF 2
ENDMDL
MODEL 15
REMARK VINA RESULT:      -6.1      7.331      9.606
REMARK  2 active torsions:
REMARK  status: ('A' for Active; 'I' for Inactive)
REMARK    1  A    between atoms: O_1  and  C_2 
REMARK    2  A    between atoms: C_7  and  O_8 
ROOT
HETATM    1  C   LIG     1      15.620  31.259  13.845  1.00  0.00     0.076 A 
HETATM    2  C   LIG     1      15.053  31.476  15.132  1.00  0.00     0.010 A 
HETATM    3  C   LIG     1      14.024  30.654  15.638  1.00  0.00     0.015 A 
HETATM    4  C   LIG     1      13.483  30.884  16.899  1.00  0.00     0.004 A 
HETATM    5  C   LIG     1      13.950  31.933  17.684  1.00  0.00     0.037 A 
HETATM    6  C   LIG     1      14.966  32.771  17.225  1.00  0.00     0.076 A 
HETATM    7  C   LIG     1      15.533  32.554  15.939  1.00  0.00     0.010 A 
HETATM    8  C   LIG     1      16.563  33.376  15.433  1.00  0.00     0.015 A 
HETATM    9  C   LIG     1      17.103  33.146  14.171  1.00  0.00     0.004 A 
HETATM   10  C   LIG     1      16.637  32.098  13.387  1.00  0.00     0.037 A 
ENDROOT
BRANCH   1  11
HETATM   11  O   LIG     1      15.214  30.232  12.987  1.00  0.00    -0.360 OA
HETATM   12  H   LIG     1      15.702  29.951  12.149  1.00  0.00     0.217 HD
ENDBRANCH   1  11
BRANCH   6  13
HETATM   13  O   LIG     1      15.372  33.799  18.083  1.00  0.00    -0.360 OA
HETATM   14  H   LIG     1      14.997  34.736  18.082  1.00  0.00     0.217 HD
ENDBRANCH   6  13
TORSDOF 2
ENDMDL
MODEL 16
REMARK VINA RESULT:      -6.1      7.352      8.632
REMARK  2 active torsions:
REMARK  status: ('A' for Active; 'I' for Inactive)
REMARK    1  A    between atoms: O_1  and  C_2 
REMARK    2  A    between atoms: C_7  and  O_8 
ROOT
HETATM    1  C   LIG     1      14.961  32.735  17.228  1.00  0.00     0.076 A 
HETATM    2  C   LIG     1      15.527  32.521  15.940  1.00  0.00     0.010 A 
HETATM    3  C   LIG     1      16.558  33.342  15.436  1.00  0.00     0.015 A 
HETATM    4  C   LIG     1      17.098  33.116  14.174  1.00  0.00     0.004 A 
HETATM    5  C   LIG     1      16.626  32.074  13.384  1.00  0.00     0.037 A 
HETATM    6  C   LIG     1      15.608  31.235  13.840  1.00  0.00     0.076 A 
HETATM    7  C   LIG     1      15.042  31.449  15.128  1.00  0.00     0.010 A 
HETATM    8  C   LIG     1      14.011  30.628  15.631  1.00  0.00     0.015 A 
HETATM    9  C   LIG     1      13.471  30.854  16.894  1.00  0.00     0.004 A 
HETATM   10  C   LIG     1      13.943  31.897  17.683  1.00  0.00     0.037 A 
ENDROOT
BRANCH   1  11
HETATM   11  O   LIG     1      15.371  33.757  18.090  1.00  0.00    -0.360 OA
HETATM   12  H   LIG     1      16.058  33.655  18.823  1.00  0.00     0.217 HD
ENDBRANCH   1  11
BRANCH   6  13
HETATM   13  O   LIG     1      15.198  30.213  12.978  1.00  0.00    -0.360 OA
HETATM   14  H   LIG     1      15.694  29.922  12.148  1.00  0.00     0.217 HD
ENDBRANCH   6  13
TORSDOF 2
ENDMDL
MODEL 17
REMARK VINA RESULT:      -5.9      7.566      9.655
REMARK  2 active torsions:
REMARK  status: ('A' for Active; 'I' for Inactive)
REMARK    1  A    between atoms: O_1  and  C_2 
REMARK    2  A    between atoms: C_7  and  O_8 
ROOT
HETATM    1  C   LIG     1      16.559  32.630  14.744  1.00  0.00     0.076 A 
HETATM    2  C   LIG     1      15.444  31.772  14.956  1.00  0.00     0.010 A 
HETATM    3  C   LIG     1      15.231  30.623  14.165  1.00  0.00     0.015 A 
HETATM    4  C   LIG     1      14.134  29.796  14.389  1.00  0.00     0.004 A 
HETATM    5  C   LIG     1      13.226  30.092  15.399  1.00  0.00     0.037 A 
HETATM    6  C   LIG     1      13.395  31.218  16.206  1.00  0.00     0.076 A 
HETATM    7  C   LIG     1      14.509  32.076  15.995  1.00  0.00     0.010 A 
HETATM    8  C   LIG     1      14.722  33.225  16.785  1.00  0.00     0.015 A 
HETATM    9  C   LIG     1      15.819  34.052  16.561  1.00  0.00     0.004 A 
HETATM   10  C   LIG     1      16.728  33.756  15.552  1.00  0.00     0.037 A 
ENDROOT
BRANCH   1  11
HETATM   11  O   LIG     1      17.522  32.413  13.754  1.00  0.00    -0.360 OA
HETATM   12  H   LIG     1      18.402  32.904  13.685  1.00  0.00     0.217 HD
ENDBRANCH   1  11
BRANCH   6  13
HETATM   13  O   LIG     1      12.432  31.435  17.197  1.00  0.00    -0.360 OA
HETATM   14  H   LIG     1      11.579  30.905  17.300  1.00  0.00     0.217 HD
ENDBRANCH   6  13
TORSDOF 2
ENDMDL
MODEL 18
REMARK VINA RESULT:      -5.9      7.741      9.619
REMARK  2 active torsions:
REMARK  status: ('A' for Active; 'I' for Inactive)
REMARK    1  A    between atoms: O_1  and  C_2 
REMARK    2  A    between atoms: C_7  and  O_8 
ROOT
HETATM    1  C   LIG     1      16.443  33.022  15.090  1.00  0.00     0.076 A 
HETATM    2  C   LIG     1      15.365  32.283  15.653  1.00  0.00     0.010 A 
HETATM    3  C   LIG     1      14.860  32.570  16.939  1.00  0.00     0.015 A 
HETATM    4  C   LIG     1      13.805  31.834  17.471  1.00  0.00     0.004 A 
HETATM    5  C   LIG     1      13.230  30.800  16.741  1.00  0.00     0.037 A 
HETATM    6  C   LIG     1      13.696  30.481  15.465  1.00  0.00     0.076 A 
HETATM    7  C   LIG     1      14.774  31.220  14.902  1.00  0.00     0.010 A 
HETATM    8  C   LIG     1      15.278  30.933  13.616  1.00  0.00     0.015 A 
HETATM    9  C   LIG     1      16.334  31.669  13.084  1.00  0.00     0.004 A 
HETATM   10  C   LIG     1      16.908  32.703  13.814  1.00  0.00     0.037 A 
ENDROOT
BRANCH   1  11
HETATM   11  O   LIG     1      17.082  34.076  15.750  1.00  0.00    -0.360 OA
HETATM   12  H   LIG     1      18.057  34.317  15.648  1.00  0.00     0.217 HD
ENDBRANCH   1  11
BRANCH   6  13
HETATM   13  O   LIG     1      13.057  29.426  14.805  1.00  0.00    -0.360 OA
HETATM   14  H   LIG     1      12.953  28.492  15.173  1.00  0.00     0.217 HD
ENDBRANCH   6  13
TORSDOF 2
ENDMDL
MODEL 19
REMARK VINA RESULT:      -5.7      1.509      2.166
REMARK  2 active torsions:
REMARK  status: ('A' for Active; 'I' for Inactive)
REMARK    1  A    between atoms: O_1  and  C_2 
REMARK    2  A    between atoms: C_7  and  O_8 
ROOT
HETATM    1  C   LIG     1      18.111  38.880  22.479  1.00  0.00     0.076 A 
HETATM    2  C   LIG     1      18.105  38.033  21.336  1.00  0.00     0.010 A 
HETATM    3  C   LIG     1      18.929  38.287  20.219  1.00  0.00     0.015 A 
HETATM    4  C   LIG     1      18.908  37.446  19.111  1.00  0.00     0.004 A 
HETATM    5  C   LIG     1      18.070  36.337  19.087  1.00  0.00     0.037 A 
HETATM    6  C   LIG     1      17.238  36.045  20.168  1.00  0.00     0.076 A 
HETATM    7  C   LIG     1      17.243  36.892  21.311  1.00  0.00     0.010 A 
HETATM    8  C   LIG     1      16.420  36.637  22.428  1.00  0.00     0.015 A 
HETATM    9  C   LIG     1      16.441  37.479  23.536  1.00  0.00     0.004 A 
HETATM   10  C   LIG     1      17.279  38.588  23.561  1.00  0.00     0.037 A 
ENDROOT
BRANCH   1  11
HETATM   11  O   LIG     1      18.918  40.016  22.593  1.00  0.00    -0.360 OA
HETATM   12  H   LIG     1      19.858  40.097  22.231  1.00  0.00     0.217 HD
ENDBRANCH   1  11
BRANCH   6  13
HETATM   13  O   LIG     1      16.430  34.909  20.055  1.00  0.00    -0.360 OA
HETATM   14  H   LIG     1      15.886  34.665  19.240  1.00  0.00     0.217 HD
ENDBRANCH   6  13
TORSDOF 2
ENDMDL
