REMARK  3 active torsions:
REMARK  status: ('A' for Active; 'I' for Inactive)
REMARK    1  A    between atoms: C_6  and  O_7 
REMARK    2  A    between atoms: C_9  and  O_10 
REMARK    3  A    between atoms: C_22  and  C_23 
ROOT
HETATM    1  O   LIG     1       0.333  -2.517  -2.804  1.00  0.00    -0.291 OA
HETATM    2  C   LIG     1       0.089  -1.443  -2.190  1.00  0.00     0.173 C 
HETATM    3  C   LIG     1       0.985  -0.240  -2.388  1.00  0.00     0.128 C 
HETATM    4  C   LIG     1       2.106  -0.193  -1.356  1.00  0.00    -0.008 A 
HETATM    5  C   LIG     1       2.819  -1.351  -1.002  1.00  0.00     0.050 A 
HETATM    6  C   LIG     1       3.848  -1.314  -0.053  1.00  0.00     0.102 A 
HETATM    7  C   LIG     1       4.194  -0.079   0.551  1.00  0.00     0.104 A 
HETATM    8  C   LIG     1       3.509   1.088   0.161  1.00  0.00     0.077 A 
HETATM    9  C   LIG     1       2.496   1.038  -0.797  1.00  0.00     0.079 A 
HETATM   10  O   LIG     1       1.874   2.228  -1.192  1.00  0.00    -0.348 OA
HETATM   11  C   LIG     1       1.008   2.285  -2.322  1.00  0.00     0.209 C 
HETATM   12  C   LIG     1       0.116   1.046  -2.352  1.00  0.00     0.169 C 
HETATM   13  O   LIG     1      -0.739   1.059  -1.204  1.00  0.00    -0.341 OA
HETATM   14  C   LIG     1      -1.048  -1.357  -1.254  1.00  0.00     0.045 A 
HETATM   15  C   LIG     1      -1.409  -0.087  -0.765  1.00  0.00     0.092 A 
HETATM   16  C   LIG     1      -2.443   0.002   0.167  1.00  0.00     0.012 A 
HETATM   17  C   LIG     1      -3.002   1.210   0.830  1.00  0.00     0.081 A 
HETATM   18  C   LIG     1      -4.129   0.615   1.724  1.00  0.00     0.161 A 
HETATM   19  O   LIG     1      -4.106  -0.795   1.487  1.00  0.00    -0.341 OA
HETATM   20  C   LIG     1      -3.117  -1.111   0.582  1.00  0.00     0.079 A 
HETATM   21  C   LIG     1      -2.802  -2.382   0.104  1.00  0.00     0.038 A 
HETATM   22  C   LIG     1      -1.754  -2.505  -0.824  1.00  0.00     0.021 A 
ENDROOT
BRANCH  18  23
HETATM   23  C   LIG     1      -5.492   1.178   1.376  1.00  0.00    -0.064 C 
HETATM   24  C   LIG     1      -6.103   0.922   0.023  1.00  0.00     0.045 C 
HETATM   25  C   LIG     1      -6.169   1.914   2.270  1.00  0.00     0.016 C 
ENDBRANCH  18  23
BRANCH   6  26
HETATM   26  O   LIG     1       4.478  -2.538   0.239  1.00  0.00    -0.353 OA
HETATM   27  C   LIG     1       5.547  -2.741   1.157  1.00  0.00     0.210 C 
ENDBRANCH   6  26
BRANCH   7  28
HETATM   28  O   LIG     1       5.212  -0.029   1.517  1.00  0.00    -0.353 OA
HETATM   29  C   LIG     1       5.643   1.150   2.188  1.00  0.00     0.210 C 
ENDBRANCH   7  28
TORSDOF 3
