MODEL 1
REMARK VINA RESULT:      -5.4      0.000      0.000
REMARK  3 active torsions:
REMARK  status: ('A' for Active; 'I' for Inactive)
REMARK    1  A    between atoms: C_6  and  O_7 
REMARK    2  A    between atoms: C_9  and  O_10 
REMARK    3  A    between atoms: C_22  and  C_23 
ROOT
HETATM    1  O   LIG     1      28.637  23.659  20.427  1.00  0.00    -0.291 OA
HETATM    2  C   LIG     1      28.204  22.939  19.487  1.00  0.00     0.173 C 
HETATM    3  C   LIG     1      29.144  22.482  18.393  1.00  0.00     0.128 C 
HETATM    4  C   LIG     1      29.151  23.448  17.213  1.00  0.00    -0.008 A 
HETATM    5  C   LIG     1      29.180  24.839  17.411  1.00  0.00     0.050 A 
HETATM    6  C   LIG     1      29.184  25.730  16.331  1.00  0.00     0.102 A 
HETATM    7  C   LIG     1      29.179  25.221  15.008  1.00  0.00     0.104 A 
HETATM    8  C   LIG     1      29.196  23.826  14.812  1.00  0.00     0.077 A 
HETATM    9  C   LIG     1      29.207  22.951  15.898  1.00  0.00     0.079 A 
HETATM   10  O   LIG     1      29.274  21.573  15.660  1.00  0.00    -0.348 OA
HETATM   11  C   LIG     1      29.525  20.640  16.707  1.00  0.00     0.209 C 
HETATM   12  C   LIG     1      28.748  21.045  17.957  1.00  0.00     0.169 C 
HETATM   13  O   LIG     1      27.346  20.957  17.684  1.00  0.00    -0.341 OA
HETATM   14  C   LIG     1      26.780  22.561  19.428  1.00  0.00     0.045 A 
HETATM   15  C   LIG     1      26.392  21.584  18.491  1.00  0.00     0.092 A 
HETATM   16  C   LIG     1      25.039  21.261  18.382  1.00  0.00     0.012 A 
HETATM   17  C   LIG     1      24.383  20.280  17.478  1.00  0.00     0.081 A 
HETATM   18  C   LIG     1      22.883  20.399  17.879  1.00  0.00     0.161 A 
HETATM   19  O   LIG     1      22.839  21.378  18.922  1.00  0.00    -0.341 OA
HETATM   20  C   LIG     1      24.105  21.854  19.183  1.00  0.00     0.079 A 
HETATM   21  C   LIG     1      24.454  22.809  20.136  1.00  0.00     0.038 A 
HETATM   22  C   LIG     1      25.808  23.167  20.258  1.00  0.00     0.021 A 
ENDROOT
BRANCH  18  23
HETATM   23  C   LIG     1      22.318  19.085  18.377  1.00  0.00    -0.064 C 
HETATM   24  C   LIG     1      21.335  18.309  17.541  1.00  0.00     0.045 C 
HETATM   25  C   LIG     1      22.686  18.598  19.572  1.00  0.00     0.016 C 
ENDBRANCH  18  23
BRANCH   6  26
HETATM   26  O   LIG     1      29.192  27.101  16.647  1.00  0.00    -0.353 OA
HETATM   27  C   LIG     1      28.866  27.680  17.907  1.00  0.00     0.210 C 
ENDBRANCH   6  26
BRANCH   7  28
HETATM   28  O   LIG     1      29.166  26.102  13.915  1.00  0.00    -0.353 OA
HETATM   29  C   LIG     1      30.320  26.549  13.212  1.00  0.00     0.210 C 
ENDBRANCH   7  28
TORSDOF 3
ENDMDL
MODEL 2
REMARK VINA RESULT:      -5.3      3.265      6.576
REMARK  3 active torsions:
REMARK  status: ('A' for Active; 'I' for Inactive)
REMARK    1  A    between atoms: C_6  and  O_7 
REMARK    2  A    between atoms: C_9  and  O_10 
REMARK    3  A    between atoms: C_22  and  C_23 
ROOT
HETATM    1  O   LIG     1      22.435  22.042  19.013  1.00  0.00    -0.291 OA
HETATM    2  C   LIG     1      23.559  22.305  19.519  1.00  0.00     0.173 C 
HETATM    3  C   LIG     1      24.684  22.807  18.641  1.00  0.00     0.128 C 
HETATM    4  C   LIG     1      25.551  21.665  18.122  1.00  0.00    -0.008 A 
HETATM    5  C   LIG     1      24.977  20.475  17.646  1.00  0.00     0.050 A 
HETATM    6  C   LIG     1      25.768  19.421  17.170  1.00  0.00     0.102 A 
HETATM    7  C   LIG     1      27.178  19.564  17.150  1.00  0.00     0.104 A 
HETATM    8  C   LIG     1      27.749  20.776  17.586  1.00  0.00     0.077 A 
HETATM    9  C   LIG     1      26.947  21.822  18.042  1.00  0.00     0.079 A 
HETATM   10  O   LIG     1      27.550  23.027  18.420  1.00  0.00    -0.348 OA
HETATM   11  C   LIG     1      26.788  24.205  18.667  1.00  0.00     0.209 C 
HETATM   12  C   LIG     1      25.519  23.847  19.437  1.00  0.00     0.169 C 
HETATM   13  O   LIG     1      25.882  23.339  20.725  1.00  0.00    -0.341 OA
HETATM   14  C   LIG     1      23.798  22.099  20.960  1.00  0.00     0.045 A 
HETATM   15  C   LIG     1      24.987  22.610  21.514  1.00  0.00     0.092 A 
HETATM   16  C   LIG     1      25.255  22.370  22.862  1.00  0.00     0.012 A 
HETATM   17  C   LIG     1      26.428  22.793  23.672  1.00  0.00     0.081 A 
HETATM   18  C   LIG     1      26.092  22.221  25.080  1.00  0.00     0.161 A 
HETATM   19  O   LIG     1      24.825  21.573  24.941  1.00  0.00    -0.341 OA
HETATM   20  C   LIG     1      24.374  21.679  23.644  1.00  0.00     0.079 A 
HETATM   21  C   LIG     1      23.177  21.177  23.136  1.00  0.00     0.038 A 
HETATM   22  C   LIG     1      22.888  21.389  21.778  1.00  0.00     0.021 A 
ENDROOT
BRANCH  18  23
HETATM   23  C   LIG     1      26.006  23.308  26.133  1.00  0.00    -0.064 C 
HETATM   24  C   LIG     1      26.559  24.683  25.860  1.00  0.00     0.045 C 
HETATM   25  C   LIG     1      25.439  23.056  27.322  1.00  0.00     0.016 C 
ENDBRANCH  18  23
BRANCH   6  26
HETATM   26  O   LIG     1      25.087  18.269  16.738  1.00  0.00    -0.353 OA
HETATM   27  C   LIG     1      24.545  18.043  15.441  1.00  0.00     0.210 C 
ENDBRANCH   6  26
BRANCH   7  28
HETATM   28  O   LIG     1      27.986  18.511  16.693  1.00  0.00    -0.353 OA
HETATM   29  C   LIG     1      28.394  18.322  15.342  1.00  0.00     0.210 C 
ENDBRANCH   7  28
TORSDOF 3
ENDMDL
MODEL 3
REMARK VINA RESULT:      -5.2      3.972      5.058
REMARK  3 active torsions:
REMARK  status: ('A' for Active; 'I' for Inactive)
REMARK    1  A    between atoms: C_6  and  O_7 
REMARK    2  A    between atoms: C_9  and  O_10 
REMARK    3  A    between atoms: C_22  and  C_23 
ROOT
HETATM    1  O   LIG     1      24.713  23.068  24.528  1.00  0.00    -0.291 OA
HETATM    2  C   LIG     1      25.161  22.378  23.571  1.00  0.00     0.173 C 
HETATM    3  C   LIG     1      26.535  21.754  23.670  1.00  0.00     0.128 C 
HETATM    4  C   LIG     1      27.613  22.663  23.089  1.00  0.00    -0.008 A 
HETATM    5  C   LIG     1      27.621  24.043  23.353  1.00  0.00     0.050 A 
HETATM    6  C   LIG     1      28.607  24.883  22.820  1.00  0.00     0.102 A 
HETATM    7  C   LIG     1      29.632  24.328  22.013  1.00  0.00     0.104 A 
HETATM    8  C   LIG     1      29.648  22.938  21.788  1.00  0.00     0.077 A 
HETATM    9  C   LIG     1      28.667  22.112  22.338  1.00  0.00     0.079 A 
HETATM   10  O   LIG     1      28.747  20.730  22.130  1.00  0.00    -0.348 OA
HETATM   11  C   LIG     1      27.928  19.813  22.848  1.00  0.00     0.209 C 
HETATM   12  C   LIG     1      26.511  20.370  22.967  1.00  0.00     0.169 C 
HETATM   13  O   LIG     1      25.936  20.465  21.659  1.00  0.00    -0.341 OA
HETATM   14  C   LIG     1      24.367  22.199  22.341  1.00  0.00     0.045 A 
HETATM   15  C   LIG     1      24.808  21.250  21.400  1.00  0.00     0.092 A 
HETATM   16  C   LIG     1      24.101  21.113  20.206  1.00  0.00     0.012 A 
HETATM   17  C   LIG     1      24.364  20.197  19.064  1.00  0.00     0.081 A 
HETATM   18  C   LIG     1      23.205  20.538  18.082  1.00  0.00     0.161 A 
HETATM   19  O   LIG     1      22.435  21.553  18.732  1.00  0.00    -0.341 OA
HETATM   20  C   LIG     1      22.985  21.859  19.957  1.00  0.00     0.079 A 
HETATM   21  C   LIG     1      22.505  22.793  20.874  1.00  0.00     0.038 A 
HETATM   22  C   LIG     1      23.206  22.965  22.079  1.00  0.00     0.021 A 
ENDROOT
BRANCH  18  23
HETATM   23  C   LIG     1      22.334  19.334  17.786  1.00  0.00    -0.064 C 
HETATM   24  C   LIG     1      22.060  18.307  18.853  1.00  0.00     0.045 C 
HETATM   25  C   LIG     1      21.799  19.169  16.567  1.00  0.00     0.016 C 
ENDBRANCH  18  23
BRANCH   6  26
HETATM   26  O   LIG     1      28.504  26.251  23.133  1.00  0.00    -0.353 OA
HETATM   27  C   LIG     1      29.199  26.936  24.170  1.00  0.00     0.210 C 
ENDBRANCH   6  26
BRANCH   7  28
HETATM   28  O   LIG     1      30.618  25.160  21.458  1.00  0.00    -0.353 OA
HETATM   29  C   LIG     1      30.512  25.826  20.204  1.00  0.00     0.210 C 
ENDBRANCH   7  28
TORSDOF 3
ENDMDL
MODEL 4
REMARK VINA RESULT:      -5.2     10.365     13.287
REMARK  3 active torsions:
REMARK  status: ('A' for Active; 'I' for Inactive)
REMARK    1  A    between atoms: C_6  and  O_7 
REMARK    2  A    between atoms: C_9  and  O_10 
REMARK    3  A    between atoms: C_22  and  C_23 
ROOT
HETATM    1  O   LIG     1      28.650  22.157  31.458  1.00  0.00    -0.291 OA
HETATM    2  C   LIG     1      28.409  23.015  30.566  1.00  0.00     0.173 C 
HETATM    3  C   LIG     1      29.109  24.356  30.600  1.00  0.00     0.128 C 
HETATM    4  C   LIG     1      28.299  25.399  31.362  1.00  0.00    -0.008 A 
HETATM    5  C   LIG     1      27.665  25.084  32.576  1.00  0.00     0.050 A 
HETATM    6  C   LIG     1      26.917  26.037  33.279  1.00  0.00     0.102 A 
HETATM    7  C   LIG     1      26.812  27.355  32.767  1.00  0.00     0.104 A 
HETATM    8  C   LIG     1      27.486  27.681  31.574  1.00  0.00     0.077 A 
HETATM    9  C   LIG     1      28.239  26.724  30.892  1.00  0.00     0.079 A 
HETATM   10  O   LIG     1      28.933  27.102  29.737  1.00  0.00    -0.348 OA
HETATM   11  C   LIG     1      29.901  26.251  29.129  1.00  0.00     0.209 C 
HETATM   12  C   LIG     1      29.403  24.808  29.144  1.00  0.00     0.169 C 
HETATM   13  O   LIG     1      28.231  24.711  28.328  1.00  0.00    -0.341 OA
HETATM   14  C   LIG     1      27.425  22.735  29.503  1.00  0.00     0.045 A 
HETATM   15  C   LIG     1      27.353  23.626  28.416  1.00  0.00     0.092 A 
HETATM   16  C   LIG     1      26.386  23.407  27.434  1.00  0.00     0.012 A 
HETATM   17  C   LIG     1      26.106  24.196  26.206  1.00  0.00     0.081 A 
HETATM   18  C   LIG     1      24.933  23.406  25.555  1.00  0.00     0.161 A 
HETATM   19  O   LIG     1      24.682  22.301  26.427  1.00  0.00    -0.341 OA
HETATM   20  C   LIG     1      25.541  22.336  27.503  1.00  0.00     0.079 A 
HETATM   21  C   LIG     1      25.598  21.421  28.553  1.00  0.00     0.038 A 
HETATM   22  C   LIG     1      26.551  21.625  29.565  1.00  0.00     0.021 A 
ENDROOT
BRANCH  18  23
HETATM   23  C   LIG     1      25.281  22.906  24.168  1.00  0.00    -0.064 C 
HETATM   24  C   LIG     1      24.235  22.247  23.307  1.00  0.00     0.045 C 
HETATM   25  C   LIG     1      26.528  23.041  23.692  1.00  0.00     0.016 C 
ENDBRANCH  18  23
BRANCH   6  26
HETATM   26  O   LIG     1      26.309  25.604  34.472  1.00  0.00    -0.353 OA
HETATM   27  C   LIG     1      26.977  25.191  35.659  1.00  0.00     0.210 C 
ENDBRANCH   6  26
BRANCH   7  28
HETATM   28  O   LIG     1      26.052  28.317  33.451  1.00  0.00    -0.353 OA
HETATM   29  C   LIG     1      26.552  29.183  34.464  1.00  0.00     0.210 C 
ENDBRANCH   7  28
TORSDOF 3
ENDMDL
MODEL 5
REMARK VINA RESULT:      -4.9     10.313     13.675
REMARK  3 active torsions:
REMARK  status: ('A' for Active; 'I' for Inactive)
REMARK    1  A    between atoms: C_6  and  O_7 
REMARK    2  A    between atoms: C_9  and  O_10 
REMARK    3  A    between atoms: C_22  and  C_23 
ROOT
HETATM    1  O   LIG     1      29.127  24.987  27.207  1.00  0.00    -0.291 OA
HETATM    2  C   LIG     1      28.609  24.594  28.288  1.00  0.00     0.173 C 
HETATM    3  C   LIG     1      28.386  23.116  28.525  1.00  0.00     0.128 C 
HETATM    4  C   LIG     1      26.997  22.674  28.079  1.00  0.00    -0.008 A 
HETATM    5  C   LIG     1      26.445  23.121  26.866  1.00  0.00     0.050 A 
HETATM    6  C   LIG     1      25.169  22.721  26.452  1.00  0.00     0.102 A 
HETATM    7  C   LIG     1      24.423  21.829  27.263  1.00  0.00     0.104 A 
HETATM    8  C   LIG     1      24.996  21.346  28.455  1.00  0.00     0.077 A 
HETATM    9  C   LIG     1      26.275  21.743  28.847  1.00  0.00     0.079 A 
HETATM   10  O   LIG     1      26.828  21.202  30.013  1.00  0.00    -0.348 OA
HETATM   11  C   LIG     1      28.203  21.375  30.345  1.00  0.00     0.209 C 
HETATM   12  C   LIG     1      28.635  22.804  30.025  1.00  0.00     0.169 C 
HETATM   13  O   LIG     1      27.913  23.709  30.867  1.00  0.00    -0.341 OA
HETATM   14  C   LIG     1      28.189  25.566  29.315  1.00  0.00     0.045 A 
HETATM   15  C   LIG     1      27.824  25.075  30.582  1.00  0.00     0.092 A 
HETATM   16  C   LIG     1      27.367  25.977  31.543  1.00  0.00     0.012 A 
HETATM   17  C   LIG     1      26.922  25.712  32.937  1.00  0.00     0.081 A 
HETATM   18  C   LIG     1      26.567  27.136  33.457  1.00  0.00     0.161 A 
HETATM   19  O   LIG     1      26.840  28.023  32.369  1.00  0.00    -0.341 OA
HETATM   20  C   LIG     1      27.300  27.315  31.280  1.00  0.00     0.079 A 
HETATM   21  C   LIG     1      27.673  27.841  30.044  1.00  0.00     0.038 A 
HETATM   22  C   LIG     1      28.122  26.954  29.050  1.00  0.00     0.021 A 
ENDROOT
BRANCH  18  23
HETATM   23  C   LIG     1      27.395  27.526  34.665  1.00  0.00    -0.064 C 
HETATM   24  C   LIG     1      28.266  28.755  34.631  1.00  0.00     0.045 C 
HETATM   25  C   LIG     1      27.362  26.779  35.778  1.00  0.00     0.016 C 
ENDBRANCH  18  23
BRANCH   6  26
HETATM   26  O   LIG     1      24.710  23.248  25.231  1.00  0.00    -0.353 OA
HETATM   27  C   LIG     1      25.010  22.753  23.930  1.00  0.00     0.210 C 
ENDBRANCH   6  26
BRANCH   7  28
HETATM   28  O   LIG     1      23.134  21.431  26.870  1.00  0.00    -0.353 OA
HETATM   29  C   LIG     1      22.843  20.308  26.047  1.00  0.00     0.210 C 
ENDBRANCH   7  28
TORSDOF 3
ENDMDL
MODEL 6
REMARK VINA RESULT:      -4.8      3.523      7.279
REMARK  3 active torsions:
REMARK  status: ('A' for Active; 'I' for Inactive)
REMARK    1  A    between atoms: C_6  and  O_7 
REMARK    2  A    between atoms: C_9  and  O_10 
REMARK    3  A    between atoms: C_22  and  C_23 
ROOT
HETATM    1  O   LIG     1      21.993  22.735  20.824  1.00  0.00    -0.291 OA
HETATM    2  C   LIG     1      23.222  22.457  20.785  1.00  0.00     0.173 C 
HETATM    3  C   LIG     1      24.007  22.684  19.511  1.00  0.00     0.128 C 
HETATM    4  C   LIG     1      24.032  21.438  18.632  1.00  0.00    -0.008 A 
HETATM    5  C   LIG     1      22.875  20.666  18.430  1.00  0.00     0.050 A 
HETATM    6  C   LIG     1      22.892  19.520  17.626  1.00  0.00     0.102 A 
HETATM    7  C   LIG     1      24.098  19.138  16.985  1.00  0.00     0.104 A 
HETATM    8  C   LIG     1      25.244  19.938  17.152  1.00  0.00     0.077 A 
HETATM    9  C   LIG     1      25.207  21.086  17.944  1.00  0.00     0.079 A 
HETATM   10  O   LIG     1      26.355  21.880  18.045  1.00  0.00    -0.348 OA
HETATM   11  C   LIG     1      26.324  23.177  18.635  1.00  0.00     0.209 C 
HETATM   12  C   LIG     1      25.439  23.156  19.879  1.00  0.00     0.169 C 
HETATM   13  O   LIG     1      26.030  22.295  20.858  1.00  0.00    -0.341 OA
HETATM   14  C   LIG     1      23.898  21.884  21.963  1.00  0.00     0.045 A 
HETATM   15  C   LIG     1      25.304  21.798  21.944  1.00  0.00     0.092 A 
HETATM   16  C   LIG     1      25.952  21.203  23.026  1.00  0.00     0.012 A 
HETATM   17  C   LIG     1      27.408  20.989  23.241  1.00  0.00     0.081 A 
HETATM   18  C   LIG     1      27.448  20.301  24.637  1.00  0.00     0.161 A 
HETATM   19  O   LIG     1      26.085  20.205  25.059  1.00  0.00    -0.341 OA
HETATM   20  C   LIG     1      25.250  20.736  24.101  1.00  0.00     0.079 A 
HETATM   21  C   LIG     1      23.860  20.823  24.165  1.00  0.00     0.038 A 
HETATM   22  C   LIG     1      23.178  21.404  23.082  1.00  0.00     0.021 A 
ENDROOT
BRANCH  18  23
HETATM   23  C   LIG     1      28.249  21.100  25.645  1.00  0.00    -0.064 C 
HETATM   24  C   LIG     1      27.624  21.540  26.943  1.00  0.00     0.045 C 
HETATM   25  C   LIG     1      29.525  21.426  25.390  1.00  0.00     0.016 C 
ENDBRANCH  18  23
BRANCH   6  26
HETATM   26  O   LIG     1      21.681  18.813  17.512  1.00  0.00    -0.353 OA
HETATM   27  C   LIG     1      20.856  18.729  16.355  1.00  0.00     0.210 C 
ENDBRANCH   6  26
BRANCH   7  28
HETATM   28  O   LIG     1      24.135  17.981  16.189  1.00  0.00    -0.353 OA
HETATM   29  C   LIG     1      24.588  17.933  14.841  1.00  0.00     0.210 C 
ENDBRANCH   7  28
TORSDOF 3
ENDMDL
MODEL 7
REMARK VINA RESULT:      -4.7      6.624      9.864
REMARK  3 active torsions:
REMARK  status: ('A' for Active; 'I' for Inactive)
REMARK    1  A    between atoms: C_6  and  O_7 
REMARK    2  A    between atoms: C_9  and  O_10 
REMARK    3  A    between atoms: C_22  and  C_23 
ROOT
HETATM    1  O   LIG     1      29.738  22.179  24.054  1.00  0.00    -0.291 OA
HETATM    2  C   LIG     1      28.745  22.324  24.817  1.00  0.00     0.173 C 
HETATM    3  C   LIG     1      27.585  21.355  24.740  1.00  0.00     0.128 C 
HETATM    4  C   LIG     1      26.505  21.839  23.779  1.00  0.00    -0.008 A 
HETATM    5  C   LIG     1      26.836  22.393  22.530  1.00  0.00     0.050 A 
HETATM    6  C   LIG     1      25.849  22.841  21.645  1.00  0.00     0.102 A 
HETATM    7  C   LIG     1      24.483  22.717  22.004  1.00  0.00     0.104 A 
HETATM    8  C   LIG     1      24.152  22.120  23.236  1.00  0.00     0.077 A 
HETATM    9  C   LIG     1      25.147  21.664  24.101  1.00  0.00     0.079 A 
HETATM   10  O   LIG     1      24.775  21.032  25.293  1.00  0.00    -0.348 OA
HETATM   11  C   LIG     1      25.719  20.337  26.103  1.00  0.00     0.209 C 
HETATM   12  C   LIG     1      27.023  21.128  26.169  1.00  0.00     0.169 C 
HETATM   13  O   LIG     1      26.781  22.373  26.832  1.00  0.00    -0.341 OA
HETATM   14  C   LIG     1      28.688  23.452  25.766  1.00  0.00     0.045 A 
HETATM   15  C   LIG     1      27.671  23.448  26.740  1.00  0.00     0.092 A 
HETATM   16  C   LIG     1      27.569  24.537  27.605  1.00  0.00     0.012 A 
HETATM   17  C   LIG     1      26.592  24.771  28.702  1.00  0.00     0.081 A 
HETATM   18  C   LIG     1      27.044  26.147  29.271  1.00  0.00     0.161 A 
HETATM   19  O   LIG     1      28.177  26.535  28.489  1.00  0.00    -0.341 OA
HETATM   20  C   LIG     1      28.449  25.579  27.536  1.00  0.00     0.079 A 
HETATM   21  C   LIG     1      29.481  25.608  26.599  1.00  0.00     0.038 A 
HETATM   22  C   LIG     1      29.600  24.532  25.703  1.00  0.00     0.021 A 
ENDROOT
BRANCH  18  23
HETATM   23  C   LIG     1      27.427  26.063  30.734  1.00  0.00    -0.064 C 
HETATM   24  C   LIG     1      26.978  27.124  31.705  1.00  0.00     0.045 C 
HETATM   25  C   LIG     1      28.174  25.042  31.181  1.00  0.00     0.016 C 
ENDBRANCH  18  23
BRANCH   6  26
HETATM   26  O   LIG     1      26.297  23.398  20.433  1.00  0.00    -0.353 OA
HETATM   27  C   LIG     1      26.548  24.776  20.177  1.00  0.00     0.210 C 
ENDBRANCH   6  26
BRANCH   7  28
HETATM   28  O   LIG     1      23.482  23.178  21.134  1.00  0.00    -0.353 OA
HETATM   29  C   LIG     1      22.095  22.883  21.257  1.00  0.00     0.210 C 
ENDBRANCH   7  28
TORSDOF 3
ENDMDL
MODEL 8
REMARK VINA RESULT:      -4.6      3.755      7.695
REMARK  3 active torsions:
REMARK  status: ('A' for Active; 'I' for Inactive)
REMARK    1  A    between atoms: C_6  and  O_7 
REMARK    2  A    between atoms: C_9  and  O_10 
REMARK    3  A    between atoms: C_22  and  C_23 
ROOT
HETATM    1  O   LIG     1      23.007  23.909  21.641  1.00  0.00    -0.291 OA
HETATM    2  C   LIG     1      23.566  22.804  21.403  1.00  0.00     0.173 C 
HETATM    3  C   LIG     1      23.242  21.596  22.254  1.00  0.00     0.128 C 
HETATM    4  C   LIG     1      24.204  21.456  23.428  1.00  0.00    -0.008 A 
HETATM    5  C   LIG     1      24.589  22.572  24.190  1.00  0.00     0.050 A 
HETATM    6  C   LIG     1      25.475  22.451  25.268  1.00  0.00     0.102 A 
HETATM    7  C   LIG     1      25.979  21.172  25.614  1.00  0.00     0.104 A 
HETATM    8  C   LIG     1      25.556  20.048  24.877  1.00  0.00     0.077 A 
HETATM    9  C   LIG     1      24.662  20.183  23.815  1.00  0.00     0.079 A 
HETATM   10  O   LIG     1      24.229  19.036  23.140  1.00  0.00    -0.348 OA
HETATM   11  C   LIG     1      23.148  19.072  22.212  1.00  0.00     0.209 C 
HETATM   12  C   LIG     1      23.247  20.331  21.354  1.00  0.00     0.169 C 
HETATM   13  O   LIG     1      24.438  20.264  20.563  1.00  0.00    -0.341 OA
HETATM   14  C   LIG     1      24.557  22.685  20.317  1.00  0.00     0.045 A 
HETATM   15  C   LIG     1      24.985  21.395  19.949  1.00  0.00     0.092 A 
HETATM   16  C   LIG     1      25.967  21.271  18.966  1.00  0.00     0.012 A 
HETATM   17  C   LIG     1      26.583  20.036  18.412  1.00  0.00     0.081 A 
HETATM   18  C   LIG     1      27.575  20.599  17.352  1.00  0.00     0.161 A 
HETATM   19  O   LIG     1      27.426  22.020  17.400  1.00  0.00    -0.341 OA
HETATM   20  C   LIG     1      26.488  22.370  18.346  1.00  0.00     0.079 A 
HETATM   21  C   LIG     1      26.074  23.661  18.668  1.00  0.00     0.038 A 
HETATM   22  C   LIG     1      25.097  23.819  19.667  1.00  0.00     0.021 A 
ENDROOT
BRANCH  18  23
HETATM   23  C   LIG     1      27.270  20.091  15.957  1.00  0.00    -0.064 C 
HETATM   24  C   LIG     1      28.222  20.357  14.821  1.00  0.00     0.045 C 
HETATM   25  C   LIG     1      26.145  19.401  15.719  1.00  0.00     0.016 C 
ENDBRANCH  18  23
BRANCH   6  26
HETATM   26  O   LIG     1      25.807  23.638  25.946  1.00  0.00    -0.353 OA
HETATM   27  C   LIG     1      26.912  24.491  25.667  1.00  0.00     0.210 C 
ENDBRANCH   6  26
BRANCH   7  28
HETATM   28  O   LIG     1      26.881  21.036  26.682  1.00  0.00    -0.353 OA
HETATM   29  C   LIG     1      28.299  21.015  26.555  1.00  0.00     0.210 C 
ENDBRANCH   7  28
TORSDOF 3
ENDMDL
MODEL 9
REMARK VINA RESULT:      -4.5      4.330      6.848
REMARK  3 active torsions:
REMARK  status: ('A' for Active; 'I' for Inactive)
REMARK    1  A    between atoms: C_6  and  O_7 
REMARK    2  A    between atoms: C_9  and  O_10 
REMARK    3  A    between atoms: C_22  and  C_23 
ROOT
HETATM    1  O   LIG     1      28.609  20.452  21.297  1.00  0.00    -0.291 OA
HETATM    2  C   LIG     1      27.910  21.415  21.713  1.00  0.00     0.173 C 
HETATM    3  C   LIG     1      26.804  21.974  20.845  1.00  0.00     0.128 C 
HETATM    4  C   LIG     1      27.293  23.129  19.978  1.00  0.00    -0.008 A 
HETATM    5  C   LIG     1      28.529  23.068  19.313  1.00  0.00     0.050 A 
HETATM    6  C   LIG     1      28.984  24.127  18.518  1.00  0.00     0.102 A 
HETATM    7  C   LIG     1      28.173  25.279  18.362  1.00  0.00     0.104 A 
HETATM    8  C   LIG     1      26.915  25.319  18.993  1.00  0.00     0.077 A 
HETATM    9  C   LIG     1      26.468  24.250  19.770  1.00  0.00     0.079 A 
HETATM   10  O   LIG     1      25.190  24.310  20.339  1.00  0.00    -0.348 OA
HETATM   11  C   LIG     1      24.581  23.170  20.939  1.00  0.00     0.209 C 
HETATM   12  C   LIG     1      25.617  22.398  21.752  1.00  0.00     0.169 C 
HETATM   13  O   LIG     1      26.065  23.219  22.837  1.00  0.00    -0.341 OA
HETATM   14  C   LIG     1      28.180  22.025  23.029  1.00  0.00     0.045 A 
HETATM   15  C   LIG     1      27.242  22.943  23.539  1.00  0.00     0.092 A 
HETATM   16  C   LIG     1      27.514  23.571  24.754  1.00  0.00     0.012 A 
HETATM   17  C   LIG     1      26.697  24.571  25.493  1.00  0.00     0.081 A 
HETATM   18  C   LIG     1      27.556  24.840  26.762  1.00  0.00     0.161 A 
HETATM   19  O   LIG     1      28.711  24.006  26.631  1.00  0.00    -0.341 OA
HETATM   20  C   LIG     1      28.650  23.289  25.456  1.00  0.00     0.079 A 
HETATM   21  C   LIG     1      29.591  22.370  24.994  1.00  0.00     0.038 A 
HETATM   22  C   LIG     1      29.352  21.732  23.764  1.00  0.00     0.021 A 
ENDROOT
BRANCH  18  23
HETATM   23  C   LIG     1      26.813  24.501  28.038  1.00  0.00    -0.064 C 
HETATM   24  C   LIG     1      26.918  25.395  29.246  1.00  0.00     0.045 C 
HETATM   25  C   LIG     1      26.054  23.397  28.107  1.00  0.00     0.016 C 
ENDBRANCH  18  23
BRANCH   6  26
HETATM   26  O   LIG     1      30.246  23.965  17.918  1.00  0.00    -0.353 OA
HETATM   27  C   LIG     1      30.518  23.305  16.686  1.00  0.00     0.210 C 
ENDBRANCH   6  26
BRANCH   7  28
HETATM   28  O   LIG     1      28.624  26.357  17.582  1.00  0.00    -0.353 OA
HETATM   29  C   LIG     1      29.134  27.581  18.099  1.00  0.00     0.210 C 
ENDBRANCH   7  28
TORSDOF 3
ENDMDL
MODEL 10
REMARK VINA RESULT:      -4.3      3.302      5.904
REMARK  3 active torsions:
REMARK  status: ('A' for Active; 'I' for Inactive)
REMARK    1  A    between atoms: C_6  and  O_7 
REMARK    2  A    between atoms: C_9  and  O_10 
REMARK    3  A    between atoms: C_22  and  C_23 
ROOT
HETATM    1  O   LIG     1      25.467  24.251  18.233  1.00  0.00    -0.291 OA
HETATM    2  C   LIG     1      26.264  23.989  19.175  1.00  0.00     0.173 C 
HETATM    3  C   LIG     1      27.755  24.134  18.964  1.00  0.00     0.128 C 
HETATM    4  C   LIG     1      28.391  22.829  18.498  1.00  0.00    -0.008 A 
HETATM    5  C   LIG     1      27.777  22.029  17.520  1.00  0.00     0.050 A 
HETATM    6  C   LIG     1      28.356  20.828  17.090  1.00  0.00     0.102 A 
HETATM    7  C   LIG     1      29.597  20.418  17.638  1.00  0.00     0.104 A 
HETATM    8  C   LIG     1      30.232  21.244  18.585  1.00  0.00     0.077 A 
HETATM    9  C   LIG     1      29.651  22.445  18.993  1.00  0.00     0.079 A 
HETATM   10  O   LIG     1      30.339  23.261  19.899  1.00  0.00    -0.348 OA
HETATM   11  C   LIG     1      29.923  24.595  20.175  1.00  0.00     0.209 C 
HETATM   12  C   LIG     1      28.401  24.652  20.277  1.00  0.00     0.169 C 
HETATM   13  O   LIG     1      27.980  23.872  21.402  1.00  0.00    -0.341 OA
HETATM   14  C   LIG     1      25.756  23.511  20.475  1.00  0.00     0.045 A 
HETATM   15  C   LIG     1      26.658  23.443  21.554  1.00  0.00     0.092 A 
HETATM   16  C   LIG     1      26.206  22.937  22.773  1.00  0.00     0.012 A 
HETATM   17  C   LIG     1      26.954  22.759  24.046  1.00  0.00     0.081 A 
HETATM   18  C   LIG     1      25.870  22.174  24.997  1.00  0.00     0.161 A 
HETATM   19  O   LIG     1      24.675  22.090  24.216  1.00  0.00    -0.341 OA
HETATM   20  C   LIG     1      24.910  22.538  22.935  1.00  0.00     0.079 A 
HETATM   21  C   LIG     1      23.984  22.611  21.896  1.00  0.00     0.038 A 
HETATM   22  C   LIG     1      24.413  23.102  20.651  1.00  0.00     0.021 A 
ENDROOT
BRANCH  18  23
HETATM   23  C   LIG     1      25.637  23.055  26.208  1.00  0.00    -0.064 C 
HETATM   24  C   LIG     1      26.127  24.479  26.225  1.00  0.00     0.045 C 
HETATM   25  C   LIG     1      24.992  22.573  27.281  1.00  0.00     0.016 C 
ENDBRANCH  18  23
BRANCH   6  26
HETATM   26  O   LIG     1      27.642  20.098  16.122  1.00  0.00    -0.353 OA
HETATM   27  C   LIG     1      26.255  19.778  16.156  1.00  0.00     0.210 C 
ENDBRANCH   6  26
BRANCH   7  28
HETATM   28  O   LIG     1      30.181  19.207  17.230  1.00  0.00    -0.353 OA
HETATM   29  C   LIG     1      29.903  17.934  17.802  1.00  0.00     0.210 C 
ENDBRANCH   7  28
TORSDOF 3
ENDMDL
MODEL 11
REMARK VINA RESULT:      -4.2      3.622      5.988
REMARK  3 active torsions:
REMARK  status: ('A' for Active; 'I' for Inactive)
REMARK    1  A    between atoms: C_6  and  O_7 
REMARK    2  A    between atoms: C_9  and  O_10 
REMARK    3  A    between atoms: C_22  and  C_23 
ROOT
HETATM    1  O   LIG     1      25.520  24.383  19.344  1.00  0.00    -0.291 OA
HETATM    2  C   LIG     1      26.039  23.822  20.347  1.00  0.00     0.173 C 
HETATM    3  C   LIG     1      27.538  23.870  20.547  1.00  0.00     0.128 C 
HETATM    4  C   LIG     1      28.231  22.664  19.924  1.00  0.00    -0.008 A 
HETATM    5  C   LIG     1      27.866  22.191  18.651  1.00  0.00     0.050 A 
HETATM    6  C   LIG     1      28.498  21.083  18.075  1.00  0.00     0.102 A 
HETATM    7  C   LIG     1      29.543  20.433  18.778  1.00  0.00     0.104 A 
HETATM    8  C   LIG     1      29.938  20.936  20.033  1.00  0.00     0.077 A 
HETATM    9  C   LIG     1      29.309  22.050  20.588  1.00  0.00     0.079 A 
HETATM   10  O   LIG     1      29.764  22.548  21.815  1.00  0.00    -0.348 OA
HETATM   11  C   LIG     1      29.334  23.808  22.322  1.00  0.00     0.209 C 
HETATM   12  C   LIG     1      27.839  23.984  22.066  1.00  0.00     0.169 C 
HETATM   13  O   LIG     1      27.119  22.996  22.811  1.00  0.00    -0.341 OA
HETATM   14  C   LIG     1      25.198  23.091  21.314  1.00  0.00     0.045 A 
HETATM   15  C   LIG     1      25.789  22.673  22.522  1.00  0.00     0.092 A 
HETATM   16  C   LIG     1      25.023  21.929  23.419  1.00  0.00     0.012 A 
HETATM   17  C   LIG     1      25.412  21.373  24.743  1.00  0.00     0.081 A 
HETATM   18  C   LIG     1      24.101  20.680  25.217  1.00  0.00     0.161 A 
HETATM   19  O   LIG     1      23.146  20.906  24.177  1.00  0.00    -0.341 OA
HETATM   20  C   LIG     1      23.717  21.630  23.154  1.00  0.00     0.079 A 
HETATM   21  C   LIG     1      23.092  22.045  21.979  1.00  0.00     0.038 A 
HETATM   22  C   LIG     1      23.844  22.783  21.048  1.00  0.00     0.021 A 
ENDROOT
BRANCH  18  23
HETATM   23  C   LIG     1      23.591  21.254  26.523  1.00  0.00    -0.064 C 
HETATM   24  C   LIG     1      22.272  20.803  27.095  1.00  0.00     0.045 C 
HETATM   25  C   LIG     1      24.309  22.174  27.185  1.00  0.00     0.016 C 
ENDBRANCH  18  23
BRANCH   6  26
HETATM   26  O   LIG     1      28.036  20.686  16.806  1.00  0.00    -0.353 OA
HETATM   27  C   LIG     1      26.878  19.903  16.535  1.00  0.00     0.210 C 
ENDBRANCH   6  26
BRANCH   7  28
HETATM   28  O   LIG     1      30.174  19.309  18.220  1.00  0.00    -0.353 OA
HETATM   29  C   LIG     1      29.765  17.960  18.420  1.00  0.00     0.210 C 
ENDBRANCH   7  28
TORSDOF 3
ENDMDL
MODEL 12
REMARK VINA RESULT:      -4.1      3.668      7.179
REMARK  3 active torsions:
REMARK  status: ('A' for Active; 'I' for Inactive)
REMARK    1  A    between atoms: C_6  and  O_7 
REMARK    2  A    between atoms: C_9  and  O_10 
REMARK    3  A    between atoms: C_22  and  C_23 
ROOT
HETATM    1  O   LIG     1      25.023  21.963  21.416  1.00  0.00    -0.291 OA
HETATM    2  C   LIG     1      25.840  22.893  21.173  1.00  0.00     0.173 C 
HETATM    3  C   LIG     1      25.847  23.555  19.812  1.00  0.00     0.128 C 
HETATM    4  C   LIG     1      26.832  22.884  18.862  1.00  0.00    -0.008 A 
HETATM    5  C   LIG     1      26.933  21.484  18.787  1.00  0.00     0.050 A 
HETATM    6  C   LIG     1      27.838  20.862  17.917  1.00  0.00     0.102 A 
HETATM    7  C   LIG     1      28.656  21.659  17.077  1.00  0.00     0.104 A 
HETATM    8  C   LIG     1      28.520  23.060  17.121  1.00  0.00     0.077 A 
HETATM    9  C   LIG     1      27.603  23.665  17.982  1.00  0.00     0.079 A 
HETATM   10  O   LIG     1      27.465  25.057  17.959  1.00  0.00    -0.348 OA
HETATM   11  C   LIG     1      26.396  25.718  18.630  1.00  0.00     0.209 C 
HETATM   12  C   LIG     1      26.157  25.065  19.990  1.00  0.00     0.169 C 
HETATM   13  O   LIG     1      27.314  25.262  20.810  1.00  0.00    -0.341 OA
HETATM   14  C   LIG     1      26.811  23.322  22.196  1.00  0.00     0.045 A 
HETATM   15  C   LIG     1      27.547  24.499  21.959  1.00  0.00     0.092 A 
HETATM   16  C   LIG     1      28.512  24.885  22.890  1.00  0.00     0.012 A 
HETATM   17  C   LIG     1      29.412  26.068  22.867  1.00  0.00     0.081 A 
HETATM   18  C   LIG     1      30.212  25.911  24.193  1.00  0.00     0.161 A 
HETATM   19  O   LIG     1      29.708  24.723  24.810  1.00  0.00    -0.341 OA
HETATM   20  C   LIG     1      28.727  24.157  24.025  1.00  0.00     0.079 A 
HETATM   21  C   LIG     1      28.004  22.999  24.304  1.00  0.00     0.038 A 
HETATM   22  C   LIG     1      27.036  22.577  23.377  1.00  0.00     0.021 A 
ENDROOT
BRANCH  18  23
HETATM   23  C   LIG     1      30.023  27.096  25.118  1.00  0.00    -0.064 C 
HETATM   24  C   LIG     1      29.929  26.897  26.608  1.00  0.00     0.045 C 
HETATM   25  C   LIG     1      29.934  28.338  24.618  1.00  0.00     0.016 C 
ENDBRANCH  18  23
BRANCH   6  26
HETATM   26  O   LIG     1      27.868  19.456  17.943  1.00  0.00    -0.353 OA
HETATM   27  C   LIG     1      28.388  18.640  18.988  1.00  0.00     0.210 C 
ENDBRANCH   6  26
BRANCH   7  28
HETATM   28  O   LIG     1      29.580  21.051  16.212  1.00  0.00    -0.353 OA
HETATM   29  C   LIG     1      29.433  20.954  14.800  1.00  0.00     0.210 C 
ENDBRANCH   7  28
TORSDOF 3
ENDMDL
MODEL 13
REMARK VINA RESULT:      -3.9      4.643      7.361
REMARK  3 active torsions:
REMARK  status: ('A' for Active; 'I' for Inactive)
REMARK    1  A    between atoms: C_6  and  O_7 
REMARK    2  A    between atoms: C_9  and  O_10 
REMARK    3  A    between atoms: C_22  and  C_23 
ROOT
HETATM    1  O   LIG     1      23.668  18.356  20.614  1.00  0.00    -0.291 OA
HETATM    2  C   LIG     1      23.771  19.371  21.354  1.00  0.00     0.173 C 
HETATM    3  C   LIG     1      23.324  20.724  20.845  1.00  0.00     0.128 C 
HETATM    4  C   LIG     1      24.470  21.489  20.191  1.00  0.00    -0.008 A 
HETATM    5  C   LIG     1      25.370  20.850  19.323  1.00  0.00     0.050 A 
HETATM    6  C   LIG     1      26.426  21.547  18.722  1.00  0.00     0.102 A 
HETATM    7  C   LIG     1      26.579  22.933  18.977  1.00  0.00     0.104 A 
HETATM    8  C   LIG     1      25.649  23.581  19.812  1.00  0.00     0.077 A 
HETATM    9  C   LIG     1      24.593  22.877  20.392  1.00  0.00     0.079 A 
HETATM   10  O   LIG     1      23.662  23.568  21.175  1.00  0.00    -0.348 OA
HETATM   11  C   LIG     1      22.442  22.968  21.599  1.00  0.00     0.209 C 
HETATM   12  C   LIG     1      22.696  21.522  22.019  1.00  0.00     0.169 C 
HETATM   13  O   LIG     1      23.554  21.514  23.165  1.00  0.00    -0.341 OA
HETATM   14  C   LIG     1      24.351  19.258  22.706  1.00  0.00     0.045 A 
HETATM   15  C   LIG     1      24.243  20.366  23.568  1.00  0.00     0.092 A 
HETATM   16  C   LIG     1      24.840  20.295  24.827  1.00  0.00     0.012 A 
HETATM   17  C   LIG     1      24.871  21.318  25.905  1.00  0.00     0.081 A 
HETATM   18  C   LIG     1      25.671  20.600  27.031  1.00  0.00     0.161 A 
HETATM   19  O   LIG     1      25.991  19.306  26.512  1.00  0.00    -0.341 OA
HETATM   20  C   LIG     1      25.494  19.168  25.235  1.00  0.00     0.079 A 
HETATM   21  C   LIG     1      25.603  18.044  24.417  1.00  0.00     0.038 A 
HETATM   22  C   LIG     1      25.026  18.092  23.137  1.00  0.00     0.021 A 
ENDROOT
BRANCH  18  23
HETATM   23  C   LIG     1      24.866  20.464  28.307  1.00  0.00    -0.064 C 
HETATM   24  C   LIG     1      25.531  20.607  29.651  1.00  0.00     0.045 C 
HETATM   25  C   LIG     1      23.550  20.211  28.253  1.00  0.00     0.016 C 
ENDBRANCH  18  23
BRANCH   6  26
HETATM   26  O   LIG     1      27.278  20.800  17.887  1.00  0.00    -0.353 OA
HETATM   27  C   LIG     1      26.880  19.845  16.910  1.00  0.00     0.210 C 
ENDBRANCH   6  26
BRANCH   7  28
HETATM   28  O   LIG     1      27.643  23.642  18.395  1.00  0.00    -0.353 OA
HETATM   29  C   LIG     1      27.678  25.053  18.209  1.00  0.00     0.210 C 
ENDBRANCH   7  28
TORSDOF 3
ENDMDL
MODEL 14
REMARK VINA RESULT:      -3.8      3.589      7.584
REMARK  3 active torsions:
REMARK  status: ('A' for Active; 'I' for Inactive)
REMARK    1  A    between atoms: C_6  and  O_7 
REMARK    2  A    between atoms: C_9  and  O_10 
REMARK    3  A    between atoms: C_22  and  C_23 
ROOT
HETATM    1  O   LIG     1      24.778  22.463  21.646  1.00  0.00    -0.291 OA
HETATM    2  C   LIG     1      25.944  22.376  21.174  1.00  0.00     0.173 C 
HETATM    3  C   LIG     1      26.842  21.229  21.583  1.00  0.00     0.128 C 
HETATM    4  C   LIG     1      27.707  21.589  22.785  1.00  0.00    -0.008 A 
HETATM    5  C   LIG     1      27.175  22.283  23.885  1.00  0.00     0.050 A 
HETATM    6  C   LIG     1      27.966  22.619  24.990  1.00  0.00     0.102 A 
HETATM    7  C   LIG     1      29.330  22.232  25.013  1.00  0.00     0.104 A 
HETATM    8  C   LIG     1      29.850  21.496  23.931  1.00  0.00     0.077 A 
HETATM    9  C   LIG     1      29.045  21.157  22.843  1.00  0.00     0.079 A 
HETATM   10  O   LIG     1      29.588  20.382  21.811  1.00  0.00    -0.348 OA
HETATM   11  C   LIG     1      28.773  19.804  20.796  1.00  0.00     0.209 C 
HETATM   12  C   LIG     1      27.701  20.801  20.363  1.00  0.00     0.169 C 
HETATM   13  O   LIG     1      28.335  21.933  19.757  1.00  0.00    -0.341 OA
HETATM   14  C   LIG     1      26.455  23.403  20.245  1.00  0.00     0.045 A 
HETATM   15  C   LIG     1      27.669  23.149  19.579  1.00  0.00     0.092 A 
HETATM   16  C   LIG     1      28.193  24.137  18.745  1.00  0.00     0.012 A 
HETATM   17  C   LIG     1      29.446  24.115  17.944  1.00  0.00     0.081 A 
HETATM   18  C   LIG     1      29.422  25.502  17.240  1.00  0.00     0.161 A 
HETATM   19  O   LIG     1      28.219  26.138  17.679  1.00  0.00    -0.341 OA
HETATM   20  C   LIG     1      27.536  25.318  18.549  1.00  0.00     0.079 A 
HETATM   21  C   LIG     1      26.322  25.595  19.175  1.00  0.00     0.038 A 
HETATM   22  C   LIG     1      25.776  24.626  20.033  1.00  0.00     0.021 A 
ENDROOT
BRANCH  18  23
HETATM   23  C   LIG     1      29.422  25.377  15.730  1.00  0.00    -0.064 C 
HETATM   24  C   LIG     1      29.776  26.557  14.863  1.00  0.00     0.045 C 
HETATM   25  C   LIG     1      29.103  24.211  15.147  1.00  0.00     0.016 C 
ENDBRANCH  18  23
BRANCH   6  26
HETATM   26  O   LIG     1      27.332  23.334  26.023  1.00  0.00    -0.353 OA
HETATM   27  C   LIG     1      26.699  24.604  25.908  1.00  0.00     0.210 C 
ENDBRANCH   6  26
BRANCH   7  28
HETATM   28  O   LIG     1      30.140  22.576  26.107  1.00  0.00    -0.353 OA
HETATM   29  C   LIG     1      30.223  21.842  27.324  1.00  0.00     0.210 C 
ENDBRANCH   7  28
TORSDOF 3
ENDMDL
MODEL 15
REMARK VINA RESULT:      -3.8      3.314      8.088
REMARK  3 active torsions:
REMARK  status: ('A' for Active; 'I' for Inactive)
REMARK    1  A    between atoms: C_6  and  O_7 
REMARK    2  A    between atoms: C_9  and  O_10 
REMARK    3  A    between atoms: C_22  and  C_23 
ROOT
HETATM    1  O   LIG     1      22.862  23.167  20.919  1.00  0.00    -0.291 OA
HETATM    2  C   LIG     1      23.695  22.385  20.385  1.00  0.00     0.173 C 
HETATM    3  C   LIG     1      23.381  20.909  20.275  1.00  0.00     0.128 C 
HETATM    4  C   LIG     1      23.910  20.128  21.473  1.00  0.00    -0.008 A 
HETATM    5  C   LIG     1      23.770  20.619  22.782  1.00  0.00     0.050 A 
HETATM    6  C   LIG     1      24.255  19.907  23.886  1.00  0.00     0.102 A 
HETATM    7  C   LIG     1      24.885  18.653  23.683  1.00  0.00     0.104 A 
HETATM    8  C   LIG     1      24.983  18.141  22.374  1.00  0.00     0.077 A 
HETATM    9  C   LIG     1      24.481  18.856  21.286  1.00  0.00     0.079 A 
HETATM   10  O   LIG     1      24.555  18.290  20.008  1.00  0.00    -0.348 OA
HETATM   11  C   LIG     1      23.859  18.847  18.897  1.00  0.00     0.209 C 
HETATM   12  C   LIG     1      23.957  20.371  18.938  1.00  0.00     0.169 C 
HETATM   13  O   LIG     1      25.326  20.755  18.774  1.00  0.00    -0.341 OA
HETATM   14  C   LIG     1      24.989  22.893  19.891  1.00  0.00     0.045 A 
HETATM   15  C   LIG     1      25.784  22.032  19.111  1.00  0.00     0.092 A 
HETATM   16  C   LIG     1      27.036  22.478  18.688  1.00  0.00     0.012 A 
HETATM   17  C   LIG     1      28.054  21.766  17.871  1.00  0.00     0.081 A 
HETATM   18  C   LIG     1      29.191  22.823  17.750  1.00  0.00     0.161 A 
HETATM   19  O   LIG     1      28.729  23.971  18.466  1.00  0.00    -0.341 OA
HETATM   20  C   LIG     1      27.479  23.733  18.995  1.00  0.00     0.079 A 
HETATM   21  C   LIG     1      26.711  24.620  19.746  1.00  0.00     0.038 A 
HETATM   22  C   LIG     1      25.451  24.194  20.200  1.00  0.00     0.021 A 
ENDROOT
BRANCH  18  23
HETATM   23  C   LIG     1      29.480  23.190  16.309  1.00  0.00    -0.064 C 
HETATM   24  C   LIG     1      28.803  24.375  15.671  1.00  0.00     0.045 C 
HETATM   25  C   LIG     1      30.341  22.461  15.584  1.00  0.00     0.016 C 
ENDBRANCH  18  23
BRANCH   6  26
HETATM   26  O   LIG     1      24.078  20.505  25.147  1.00  0.00    -0.353 OA
HETATM   27  C   LIG     1      22.928  20.400  25.979  1.00  0.00     0.210 C 
ENDBRANCH   6  26
BRANCH   7  28
HETATM   28  O   LIG     1      25.392  17.935  24.778  1.00  0.00    -0.353 OA
HETATM   29  C   LIG     1      26.739  17.988  25.235  1.00  0.00     0.210 C 
ENDBRANCH   7  28
TORSDOF 3
ENDMDL
MODEL 16
REMARK VINA RESULT:      -3.8      3.314      6.307
REMARK  3 active torsions:
REMARK  status: ('A' for Active; 'I' for Inactive)
REMARK    1  A    between atoms: C_6  and  O_7 
REMARK    2  A    between atoms: C_9  and  O_10 
REMARK    3  A    between atoms: C_22  and  C_23 
ROOT
HETATM    1  O   LIG     1      24.539  23.408  19.126  1.00  0.00    -0.291 OA
HETATM    2  C   LIG     1      25.635  23.777  19.628  1.00  0.00     0.173 C 
HETATM    3  C   LIG     1      26.657  24.487  18.767  1.00  0.00     0.128 C 
HETATM    4  C   LIG     1      27.647  23.511  18.142  1.00  0.00    -0.008 A 
HETATM    5  C   LIG     1      27.217  22.294  17.586  1.00  0.00     0.050 A 
HETATM    6  C   LIG     1      28.122  21.393  17.012  1.00  0.00     0.102 A 
HETATM    7  C   LIG     1      29.500  21.720  16.972  1.00  0.00     0.104 A 
HETATM    8  C   LIG     1      29.923  22.960  17.489  1.00  0.00     0.077 A 
HETATM    9  C   LIG     1      29.008  23.855  18.044  1.00  0.00     0.079 A 
HETATM   10  O   LIG     1      29.463  25.097  18.502  1.00  0.00    -0.348 OA
HETATM   11  C   LIG     1      28.563  26.143  18.858  1.00  0.00     0.209 C 
HETATM   12  C   LIG     1      27.376  25.564  19.624  1.00  0.00     0.169 C 
HETATM   13  O   LIG     1      27.842  25.013  20.861  1.00  0.00    -0.341 OA
HETATM   14  C   LIG     1      25.944  23.496  21.043  1.00  0.00     0.045 A 
HETATM   15  C   LIG     1      27.075  24.116  21.609  1.00  0.00     0.092 A 
HETATM   16  C   LIG     1      27.413  23.812  22.928  1.00  0.00     0.012 A 
HETATM   17  C   LIG     1      28.547  24.323  23.743  1.00  0.00     0.081 A 
HETATM   18  C   LIG     1      28.332  23.608  25.109  1.00  0.00     0.161 A 
HETATM   19  O   LIG     1      27.156  22.811  24.947  1.00  0.00    -0.341 OA
HETATM   20  C   LIG     1      26.654  22.955  23.672  1.00  0.00     0.079 A 
HETATM   21  C   LIG     1      25.516  22.340  23.152  1.00  0.00     0.038 A 
HETATM   22  C   LIG     1      25.159  22.614  21.821  1.00  0.00     0.021 A 
ENDROOT
BRANCH  18  23
HETATM   23  C   LIG     1      28.141  24.592  26.245  1.00  0.00    -0.064 C 
HETATM   24  C   LIG     1      27.090  24.351  27.297  1.00  0.00     0.045 C 
HETATM   25  C   LIG     1      28.905  25.691  26.325  1.00  0.00     0.016 C 
ENDBRANCH  18  23
BRANCH   6  26
HETATM   26  O   LIG     1      27.581  20.196  16.505  1.00  0.00    -0.353 OA
HETATM   27  C   LIG     1      27.437  18.968  17.210  1.00  0.00     0.210 C 
ENDBRANCH   6  26
BRANCH   7  28
HETATM   28  O   LIG     1      30.422  20.819  16.416  1.00  0.00    -0.353 OA
HETATM   29  C   LIG     1      30.684  20.674  15.025  1.00  0.00     0.210 C 
ENDBRANCH   7  28
TORSDOF 3
ENDMDL
MODEL 17
REMARK VINA RESULT:      -3.6      3.450      6.122
REMARK  3 active torsions:
REMARK  status: ('A' for Active; 'I' for Inactive)
REMARK    1  A    between atoms: C_6  and  O_7 
REMARK    2  A    between atoms: C_9  and  O_10 
REMARK    3  A    between atoms: C_22  and  C_23 
ROOT
HETATM    1  O   LIG     1      27.151  20.820  19.393  1.00  0.00    -0.291 OA
HETATM    2  C   LIG     1      27.167  21.975  19.897  1.00  0.00     0.173 C 
HETATM    3  C   LIG     1      26.612  23.147  19.117  1.00  0.00     0.128 C 
HETATM    4  C   LIG     1      27.693  23.844  18.299  1.00  0.00    -0.008 A 
HETATM    5  C   LIG     1      28.646  23.109  17.574  1.00  0.00     0.050 A 
HETATM    6  C   LIG     1      29.642  23.744  16.822  1.00  0.00     0.102 A 
HETATM    7  C   LIG     1      29.681  25.160  16.773  1.00  0.00     0.104 A 
HETATM    8  C   LIG     1      28.697  25.895  17.463  1.00  0.00     0.077 A 
HETATM    9  C   LIG     1      27.702  25.248  18.196  1.00  0.00     0.079 A 
HETATM   10  O   LIG     1      26.714  26.013  18.826  1.00  0.00    -0.348 OA
HETATM   11  C   LIG     1      25.546  25.421  19.386  1.00  0.00     0.209 C 
HETATM   12  C   LIG     1      25.917  24.124  20.102  1.00  0.00     0.169 C 
HETATM   13  O   LIG     1      26.768  24.431  21.211  1.00  0.00    -0.341 OA
HETATM   14  C   LIG     1      27.750  22.202  21.233  1.00  0.00     0.045 A 
HETATM   15  C   LIG     1      27.548  23.456  21.840  1.00  0.00     0.092 A 
HETATM   16  C   LIG     1      28.145  23.705  23.076  1.00  0.00     0.012 A 
HETATM   17  C   LIG     1      28.089  24.935  23.910  1.00  0.00     0.081 A 
HETATM   18  C   LIG     1      28.941  24.542  25.152  1.00  0.00     0.161 A 
HETATM   19  O   LIG     1      29.368  23.197  24.918  1.00  0.00    -0.341 OA
HETATM   20  C   LIG     1      28.888  22.748  23.707  1.00  0.00     0.079 A 
HETATM   21  C   LIG     1      29.092  21.488  23.147  1.00  0.00     0.038 A 
HETATM   22  C   LIG     1      28.517  21.214  21.894  1.00  0.00     0.021 A 
ENDROOT
BRANCH  18  23
HETATM   23  C   LIG     1      28.146  24.617  26.439  1.00  0.00    -0.064 C 
HETATM   24  C   LIG     1      26.641  24.676  26.406  1.00  0.00     0.045 C 
HETATM   25  C   LIG     1      28.774  24.636  27.624  1.00  0.00     0.016 C 
ENDBRANCH  18  23
BRANCH   6  26
HETATM   26  O   LIG     1      30.556  22.907  16.155  1.00  0.00    -0.353 OA
HETATM   27  C   LIG     1      30.405  22.362  14.848  1.00  0.00     0.210 C 
ENDBRANCH   6  26
BRANCH   7  28
HETATM   28  O   LIG     1      30.684  25.812  16.038  1.00  0.00    -0.353 OA
HETATM   29  C   LIG     1      30.526  26.330  14.722  1.00  0.00     0.210 C 
ENDBRANCH   7  28
TORSDOF 3
ENDMDL
MODEL 18
REMARK VINA RESULT:      -3.6      5.676      9.189
REMARK  3 active torsions:
REMARK  status: ('A' for Active; 'I' for Inactive)
REMARK    1  A    between atoms: C_6  and  O_7 
REMARK    2  A    between atoms: C_9  and  O_10 
REMARK    3  A    between atoms: C_22  and  C_23 
ROOT
HETATM    1  O   LIG     1      27.604  18.491  24.197  1.00  0.00    -0.291 OA
HETATM    2  C   LIG     1      26.824  19.430  24.514  1.00  0.00     0.173 C 
HETATM    3  C   LIG     1      25.345  19.316  24.217  1.00  0.00     0.128 C 
HETATM    4  C   LIG     1      24.991  19.916  22.861  1.00  0.00    -0.008 A 
HETATM    5  C   LIG     1      25.794  19.685  21.730  1.00  0.00     0.050 A 
HETATM    6  C   LIG     1      25.475  20.236  20.483  1.00  0.00     0.102 A 
HETATM    7  C   LIG     1      24.307  21.028  20.350  1.00  0.00     0.104 A 
HETATM    8  C   LIG     1      23.480  21.221  21.473  1.00  0.00     0.077 A 
HETATM    9  C   LIG     1      23.803  20.653  22.706  1.00  0.00     0.079 A 
HETATM   10  O   LIG     1      22.928  20.828  23.785  1.00  0.00    -0.348 OA
HETATM   11  C   LIG     1      23.070  20.090  24.995  1.00  0.00     0.209 C 
HETATM   12  C   LIG     1      24.547  19.986  25.368  1.00  0.00     0.169 C 
HETATM   13  O   LIG     1      25.050  21.296  25.649  1.00  0.00    -0.341 OA
HETATM   14  C   LIG     1      27.346  20.657  25.145  1.00  0.00     0.045 A 
HETATM   15  C   LIG     1      26.420  21.575  25.675  1.00  0.00     0.092 A 
HETATM   16  C   LIG     1      26.896  22.767  26.221  1.00  0.00     0.012 A 
HETATM   17  C   LIG     1      26.132  23.887  26.832  1.00  0.00     0.081 A 
HETATM   18  C   LIG     1      27.258  24.878  27.249  1.00  0.00     0.161 A 
HETATM   19  O   LIG     1      28.485  24.253  26.863  1.00  0.00    -0.341 OA
HETATM   20  C   LIG     1      28.235  23.035  26.271  1.00  0.00     0.079 A 
HETATM   21  C   LIG     1      29.182  22.141  25.776  1.00  0.00     0.038 A 
HETATM   22  C   LIG     1      28.731  20.939  25.205  1.00  0.00     0.021 A 
ENDROOT
BRANCH  18  23
HETATM   23  C   LIG     1      27.259  25.147  28.740  1.00  0.00    -0.064 C 
HETATM   24  C   LIG     1      27.158  26.556  29.264  1.00  0.00     0.045 C 
HETATM   25  C   LIG     1      27.351  24.132  29.612  1.00  0.00     0.016 C 
ENDBRANCH  18  23
BRANCH   6  26
HETATM   26  O   LIG     1      26.362  19.955  19.427  1.00  0.00    -0.353 OA
HETATM   27  C   LIG     1      27.642  19.342  19.538  1.00  0.00     0.210 C 
ENDBRANCH   6  26
BRANCH   7  28
HETATM   28  O   LIG     1      23.984  21.601  19.109  1.00  0.00    -0.353 OA
HETATM   29  C   LIG     1      22.949  21.146  18.245  1.00  0.00     0.210 C 
ENDBRANCH   7  28
TORSDOF 3
ENDMDL
