REMARK  9 active torsions:
REMARK  status: ('A' for Active; 'I' for Inactive)
REMARK    1  A    between atoms: N_12  and  C_13 
REMARK    2  A    between atoms: C_13  and  C_14 
REMARK    3  A    between atoms: C_14  and  C_16 
REMARK    4  A    between atoms: C_14  and  O_15 
REMARK    5  A    between atoms: C_16  and  C_18 
REMARK    6  A    between atoms: C_16  and  O_17 
REMARK    7  A    between atoms: C_18  and  C_20 
REMARK    8  A    between atoms: C_18  and  O_19 
REMARK    9  A    between atoms: C_20  and  O_21 
ROOT
HETATM    1  C   LIG     1      -1.245  -3.683   0.704  1.00  0.00     0.049 C 
HETATM    2  C   LIG     1      -1.785  -2.291   0.495  1.00  0.00    -0.054 A 
HETATM    3  C   LIG     1      -0.893  -1.205   0.455  1.00  0.00     0.039 A 
HETATM    4  C   LIG     1      -1.346   0.121   0.260  1.00  0.00     0.065 A 
HETATM    5  C   LIG     1      -2.745   0.321   0.090  1.00  0.00     0.085 A 
HETATM    6  N   LIG     1      -3.247   1.562  -0.123  1.00  0.00    -0.237 NA
HETATM    7  C   LIG     1      -2.436   2.638  -0.183  1.00  0.00     0.171 A 
HETATM    8  C   LIG     1      -2.923   3.923  -0.412  1.00  0.00     0.282 A 
HETATM    9  N   LIG     1      -2.056   4.971  -0.471  1.00  0.00    -0.272 N 
HETATM   10  O   LIG     1      -4.159   4.119  -0.567  1.00  0.00    -0.265 OA
HETATM   11  C   LIG     1      -0.989   2.460  -0.006  1.00  0.00     0.170 A 
HETATM   12  N   LIG     1      -0.478   1.205   0.225  1.00  0.00    -0.325 N 
HETATM   13  N   LIG     1      -0.196   3.562  -0.082  1.00  0.00    -0.173 NA
HETATM   14  C   LIG     1      -0.712   4.798  -0.310  1.00  0.00     0.350 A 
HETATM   15  O   LIG     1       0.060   5.790  -0.372  1.00  0.00    -0.244 OA
HETATM   16  C   LIG     1      -3.631  -0.758   0.134  1.00  0.00     0.041 A 
HETATM   17  C   LIG     1      -3.169  -2.064   0.338  1.00  0.00    -0.054 A 
HETATM   18  C   LIG     1      -4.157  -3.201   0.375  1.00  0.00     0.049 C 
HETATM   19  H   LIG     1      -2.429   5.933  -0.645  1.00  0.00     0.174 HD
ENDROOT
BRANCH  12  20
HETATM   20  C   LIG     1       0.987   1.048   0.407  1.00  0.00     0.165 C 
BRANCH  20  21
HETATM   21  C   LIG     1       1.671   0.611  -0.915  1.00  0.00     0.167 C 
BRANCH  21  22
HETATM   22  C   LIG     1       3.223   0.464  -0.821  1.00  0.00     0.179 C 
BRANCH  22  23
HETATM   23  C   LIG     1       3.717  -0.974  -0.509  1.00  0.00     0.173 C 
BRANCH  23  24
HETATM   24  C   LIG     1       3.464  -1.411   0.947  1.00  0.00     0.198 C 
BRANCH  24  25
HETATM   25  O   LIG     1       4.096  -2.634   1.214  1.00  0.00    -0.398 OA
HETATM   26  H   LIG     1       3.570  -3.334   0.747  1.00  0.00     0.209 HD
ENDBRANCH  24  25
ENDBRANCH  23  24
BRANCH  23  27
HETATM   27  O   LIG     1       5.096  -1.036  -0.777  1.00  0.00    -0.391 OA
HETATM   28  H   LIG     1       5.306  -1.972  -1.033  1.00  0.00     0.210 HD
ENDBRANCH  23  27
ENDBRANCH  22  23
BRANCH  22  29
HETATM   29  O   LIG     1       3.762   1.393   0.088  1.00  0.00    -0.390 OA
HETATM   30  H   LIG     1       4.718   1.514  -0.149  1.00  0.00     0.210 HD
ENDBRANCH  22  29
ENDBRANCH  21  22
BRANCH  21  31
HETATM   31  O   LIG     1       1.341   1.520  -1.936  1.00  0.00    -0.391 OA
HETATM   32  H   LIG     1       1.757   2.392  -1.705  1.00  0.00     0.210 HD
ENDBRANCH  21  31
ENDBRANCH  20  21
ENDBRANCH  12  20
TORSDOF 9
