MODEL 1
REMARK VINA RESULT:      -5.3      0.000      0.000
REMARK  9 active torsions:
REMARK  status: ('A' for Active; 'I' for Inactive)
REMARK    1  A    between atoms: N_12  and  C_13 
REMARK    2  A    between atoms: C_13  and  C_14 
REMARK    3  A    between atoms: C_14  and  C_16 
REMARK    4  A    between atoms: C_14  and  O_15 
REMARK    5  A    between atoms: C_16  and  C_18 
REMARK    6  A    between atoms: C_16  and  O_17 
REMARK    7  A    between atoms: C_18  and  C_20 
REMARK    8  A    between atoms: C_18  and  O_19 
REMARK    9  A    between atoms: C_20  and  O_21 
ROOT
HETATM    1  C   LIG     1      16.756  34.639  26.465  1.00  0.00     0.049 C 
HETATM    2  C   LIG     1      17.177  35.611  25.393  1.00  0.00    -0.054 A 
HETATM    3  C   LIG     1      17.163  35.202  24.048  1.00  0.00     0.039 A 
HETATM    4  C   LIG     1      17.546  36.075  23.002  1.00  0.00     0.065 A 
HETATM    5  C   LIG     1      17.935  37.397  23.357  1.00  0.00     0.085 A 
HETATM    6  N   LIG     1      18.293  38.293  22.405  1.00  0.00    -0.237 NA
HETATM    7  C   LIG     1      18.287  37.958  21.098  1.00  0.00     0.171 A 
HETATM    8  C   LIG     1      18.639  38.862  20.098  1.00  0.00     0.282 A 
HETATM    9  N   LIG     1      18.606  38.470  18.795  1.00  0.00    -0.272 N 
HETATM   10  O   LIG     1      18.984  40.038  20.394  1.00  0.00    -0.265 OA
HETATM   11  C   LIG     1      17.894  36.598  20.706  1.00  0.00     0.170 A 
HETATM   12  N   LIG     1      17.545  35.682  21.669  1.00  0.00    -0.325 N 
HETATM   13  N   LIG     1      17.888  36.293  19.381  1.00  0.00    -0.173 NA
HETATM   14  C   LIG     1      18.236  37.206  18.436  1.00  0.00     0.350 A 
HETATM   15  O   LIG     1      18.216  36.879  17.221  1.00  0.00    -0.244 OA
HETATM   16  C   LIG     1      17.952  37.802  24.694  1.00  0.00     0.041 A 
HETATM   17  C   LIG     1      17.580  36.924  25.719  1.00  0.00    -0.054 A 
HETATM   18  C   LIG     1      17.608  37.401  27.148  1.00  0.00     0.049 C 
HETATM   19  H   LIG     1      18.870  39.155  18.049  1.00  0.00     0.174 HD
ENDROOT
BRANCH  12  20
HETATM   20  C   LIG     1      17.157  34.312  21.251  1.00  0.00     0.165 C 
BRANCH  20  21
HETATM   21  C   LIG     1      15.651  34.244  20.887  1.00  0.00     0.167 C 
BRANCH  21  22
HETATM   22  C   LIG     1      15.302  33.207  19.772  1.00  0.00     0.179 C 
BRANCH  22  23
HETATM   23  C   LIG     1      14.864  33.835  18.422  1.00  0.00     0.173 C 
BRANCH  23  24
HETATM   24  C   LIG     1      14.593  32.795  17.317  1.00  0.00     0.198 C 
BRANCH  24  25
HETATM   25  O   LIG     1      13.374  32.139  17.543  1.00  0.00    -0.398 OA
HETATM   26  H   LIG     1      13.115  32.334  18.481  1.00  0.00     0.209 HD
ENDBRANCH  24  25
ENDBRANCH  23  24
BRANCH  23  27
HETATM   27  O   LIG     1      15.876  34.711  17.992  1.00  0.00    -0.391 OA
HETATM   28  H   LIG     1      16.304  34.302  17.195  1.00  0.00     0.210 HD
ENDBRANCH  23  27
ENDBRANCH  22  23
BRANCH  22  29
HETATM   29  O   LIG     1      14.351  32.277  20.230  1.00  0.00    -0.390 OA
HETATM   30  H   LIG     1      13.734  32.763  20.836  1.00  0.00     0.210 HD
ENDBRANCH  22  29
ENDBRANCH  21  22
BRANCH  21  31
HETATM   31  O   LIG     1      15.203  35.521  20.504  1.00  0.00    -0.391 OA
HETATM   32  H   LIG     1      14.339  35.404  20.028  1.00  0.00     0.210 HD
ENDBRANCH  21  31
ENDBRANCH  20  21
ENDBRANCH  12  20
TORSDOF 9
ENDMDL
MODEL 2
REMARK VINA RESULT:      -5.2      2.808      6.554
REMARK  9 active torsions:
REMARK  status: ('A' for Active; 'I' for Inactive)
REMARK    1  A    between atoms: N_12  and  C_13 
REMARK    2  A    between atoms: C_13  and  C_14 
REMARK    3  A    between atoms: C_14  and  C_16 
REMARK    4  A    between atoms: C_14  and  O_15 
REMARK    5  A    between atoms: C_16  and  C_18 
REMARK    6  A    between atoms: C_16  and  O_17 
REMARK    7  A    between atoms: C_18  and  C_20 
REMARK    8  A    between atoms: C_18  and  O_19 
REMARK    9  A    between atoms: C_20  and  O_21 
ROOT
HETATM    1  C   LIG     1      19.206  40.060  21.314  1.00  0.00     0.049 C 
HETATM    2  C   LIG     1      18.614  38.780  20.782  1.00  0.00    -0.054 A 
HETATM    3  C   LIG     1      17.668  38.085  21.555  1.00  0.00     0.039 A 
HETATM    4  C   LIG     1      17.080  36.880  21.103  1.00  0.00     0.065 A 
HETATM    5  C   LIG     1      17.469  36.397  19.822  1.00  0.00     0.085 A 
HETATM    6  N   LIG     1      16.930  35.260  19.316  1.00  0.00    -0.237 NA
HETATM    7  C   LIG     1      16.009  34.560  20.010  1.00  0.00     0.171 A 
HETATM    8  C   LIG     1      15.430  33.396  19.510  1.00  0.00     0.282 A 
HETATM    9  N   LIG     1      14.499  32.735  20.252  1.00  0.00    -0.272 N 
HETATM   10  O   LIG     1      15.762  32.954  18.377  1.00  0.00    -0.265 OA
HETATM   11  C   LIG     1      15.593  35.034  21.336  1.00  0.00     0.170 A 
HETATM   12  N   LIG     1      16.149  36.178  21.859  1.00  0.00    -0.325 N 
HETATM   13  N   LIG     1      14.656  34.313  22.007  1.00  0.00    -0.173 NA
HETATM   14  C   LIG     1      14.114  33.184  21.482  1.00  0.00     0.350 A 
HETATM   15  O   LIG     1      13.249  32.548  22.139  1.00  0.00    -0.244 OA
HETATM   16  C   LIG     1      18.413  37.086  19.056  1.00  0.00     0.041 A 
HETATM   17  C   LIG     1      18.994  38.272  19.521  1.00  0.00    -0.054 A 
HETATM   18  C   LIG     1      20.004  38.987  18.662  1.00  0.00     0.049 C 
HETATM   19  H   LIG     1      14.067  31.862  19.869  1.00  0.00     0.174 HD
ENDROOT
BRANCH  12  20
HETATM   20  C   LIG     1      15.719  36.637  23.204  1.00  0.00     0.165 C 
BRANCH  20  21
HETATM   21  C   LIG     1      16.606  36.018  24.316  1.00  0.00     0.167 C 
BRANCH  21  22
HETATM   22  C   LIG     1      17.568  37.032  25.013  1.00  0.00     0.179 C 
BRANCH  22  23
HETATM   23  C   LIG     1      18.679  36.378  25.876  1.00  0.00     0.173 C 
BRANCH  23  24
HETATM   24  C   LIG     1      18.264  35.030  26.498  1.00  0.00     0.198 C 
BRANCH  24  25
HETATM   25  O   LIG     1      16.881  34.994  26.724  1.00  0.00    -0.398 OA
HETATM   26  H   LIG     1      16.493  34.412  26.020  1.00  0.00     0.209 HD
ENDBRANCH  24  25
ENDBRANCH  23  24
BRANCH  23  27
HETATM   27  O   LIG     1      19.026  37.273  26.904  1.00  0.00    -0.391 OA
HETATM   28  H   LIG     1      18.332  37.196  27.610  1.00  0.00     0.210 HD
ENDBRANCH  23  27
ENDBRANCH  22  23
BRANCH  22  29
HETATM   29  O   LIG     1      16.844  37.984  25.755  1.00  0.00    -0.390 OA
HETATM   30  H   LIG     1      16.136  38.343  25.159  1.00  0.00     0.210 HD
ENDBRANCH  22  29
ENDBRANCH  21  22
BRANCH  21  31
HETATM   31  O   LIG     1      17.348  34.949  23.783  1.00  0.00    -0.391 OA
HETATM   32  H   LIG     1      16.727  34.396  23.239  1.00  0.00     0.210 HD
ENDBRANCH  21  31
ENDBRANCH  20  21
ENDBRANCH  12  20
TORSDOF 9
ENDMDL
MODEL 3
REMARK VINA RESULT:      -5.0      6.585     10.613
REMARK  9 active torsions:
REMARK  status: ('A' for Active; 'I' for Inactive)
REMARK    1  A    between atoms: N_12  and  C_13 
REMARK    2  A    between atoms: C_13  and  C_14 
REMARK    3  A    between atoms: C_14  and  C_16 
REMARK    4  A    between atoms: C_14  and  O_15 
REMARK    5  A    between atoms: C_16  and  C_18 
REMARK    6  A    between atoms: C_16  and  O_17 
REMARK    7  A    between atoms: C_18  and  C_20 
REMARK    8  A    between atoms: C_18  and  O_19 
REMARK    9  A    between atoms: C_20  and  O_21 
ROOT
HETATM    1  C   LIG     1      15.660  26.806  11.731  1.00  0.00     0.049 C 
HETATM    2  C   LIG     1      14.958  27.693  12.727  1.00  0.00    -0.054 A 
HETATM    3  C   LIG     1      15.613  28.839  13.211  1.00  0.00     0.039 A 
HETATM    4  C   LIG     1      14.999  29.706  14.146  1.00  0.00     0.065 A 
HETATM    5  C   LIG     1      13.680  29.387  14.572  1.00  0.00     0.085 A 
HETATM    6  N   LIG     1      13.023  30.185  15.449  1.00  0.00    -0.237 NA
HETATM    7  C   LIG     1      13.599  31.303  15.937  1.00  0.00     0.171 A 
HETATM    8  C   LIG     1      12.943  32.148  16.829  1.00  0.00     0.282 A 
HETATM    9  N   LIG     1      13.571  33.267  17.282  1.00  0.00    -0.272 N 
HETATM   10  O   LIG     1      11.773  31.882  17.217  1.00  0.00    -0.265 OA
HETATM   11  C   LIG     1      14.962  31.653  15.516  1.00  0.00     0.170 A 
HETATM   12  N   LIG     1      15.637  30.837  14.639  1.00  0.00    -0.325 N 
HETATM   13  N   LIG     1      15.513  32.791  16.017  1.00  0.00    -0.173 NA
HETATM   14  C   LIG     1      14.836  33.589  16.884  1.00  0.00     0.350 A 
HETATM   15  O   LIG     1      15.386  34.633  17.322  1.00  0.00    -0.244 OA
HETATM   16  C   LIG     1      13.030  28.247  14.094  1.00  0.00     0.041 A 
HETATM   17  C   LIG     1      13.654  27.392  13.177  1.00  0.00    -0.054 A 
HETATM   18  C   LIG     1      12.918  26.174  12.681  1.00  0.00     0.049 C 
HETATM   19  H   LIG     1      13.072  33.898  17.951  1.00  0.00     0.174 HD
ENDROOT
BRANCH  12  20
HETATM   20  C   LIG     1      17.016  31.206  14.232  1.00  0.00     0.165 C 
BRANCH  20  21
HETATM   21  C   LIG     1      17.000  32.216  13.054  1.00  0.00     0.167 C 
BRANCH  21  22
HETATM   22  C   LIG     1      17.866  33.494  13.289  1.00  0.00     0.179 C 
BRANCH  22  23
HETATM   23  C   LIG     1      18.986  33.717  12.237  1.00  0.00     0.173 C 
BRANCH  23  24
HETATM   24  C   LIG     1      18.640  34.787  11.184  1.00  0.00     0.198 C 
BRANCH  24  25
HETATM   25  O   LIG     1      17.422  35.410  11.492  1.00  0.00    -0.398 OA
HETATM   26  H   LIG     1      17.193  35.143  12.420  1.00  0.00     0.209 HD
ENDBRANCH  24  25
ENDBRANCH  23  24
BRANCH  23  27
HETATM   27  O   LIG     1      19.233  32.493  11.589  1.00  0.00    -0.391 OA
HETATM   28  H   LIG     1      18.426  31.927  11.707  1.00  0.00     0.210 HD
ENDBRANCH  23  27
ENDBRANCH  22  23
BRANCH  22  29
HETATM   29  O   LIG     1      18.387  33.517  14.596  1.00  0.00    -0.390 OA
HETATM   30  H   LIG     1      17.783  32.968  15.161  1.00  0.00     0.210 HD
ENDBRANCH  22  29
ENDBRANCH  21  22
BRANCH  21  31
HETATM   31  O   LIG     1      15.673  32.586  12.773  1.00  0.00    -0.391 OA
HETATM   32  H   LIG     1      15.239  32.818  13.635  1.00  0.00     0.210 HD
ENDBRANCH  21  31
ENDBRANCH  20  21
ENDBRANCH  12  20
TORSDOF 9
ENDMDL
MODEL 4
REMARK VINA RESULT:      -4.9     15.080     16.983
REMARK  9 active torsions:
REMARK  status: ('A' for Active; 'I' for Inactive)
REMARK    1  A    between atoms: N_12  and  C_13 
REMARK    2  A    between atoms: C_13  and  C_14 
REMARK    3  A    between atoms: C_14  and  C_16 
REMARK    4  A    between atoms: C_14  and  O_15 
REMARK    5  A    between atoms: C_16  and  C_18 
REMARK    6  A    between atoms: C_16  and  O_17 
REMARK    7  A    between atoms: C_18  and  C_20 
REMARK    8  A    between atoms: C_18  and  O_19 
REMARK    9  A    between atoms: C_20  and  O_21 
ROOT
HETATM    1  C   LIG     1      22.472  18.178  19.994  1.00  0.00     0.049 C 
HETATM    2  C   LIG     1      23.164  19.487  19.709  1.00  0.00    -0.054 A 
HETATM    3  C   LIG     1      24.018  20.039  20.680  1.00  0.00     0.039 A 
HETATM    4  C   LIG     1      24.694  21.263  20.464  1.00  0.00     0.065 A 
HETATM    5  C   LIG     1      24.490  21.917  19.216  1.00  0.00     0.085 A 
HETATM    6  N   LIG     1      25.122  23.082  18.933  1.00  0.00    -0.237 NA
HETATM    7  C   LIG     1      25.962  23.650  19.822  1.00  0.00     0.171 A 
HETATM    8  C   LIG     1      26.634  24.841  19.553  1.00  0.00     0.282 A 
HETATM    9  N   LIG     1      27.477  25.364  20.485  1.00  0.00    -0.272 N 
HETATM   10  O   LIG     1      26.467  25.433  18.453  1.00  0.00    -0.265 OA
HETATM   11  C   LIG     1      26.187  22.999  21.119  1.00  0.00     0.170 A 
HETATM   12  N   LIG     1      25.536  21.825  21.416  1.00  0.00    -0.325 N 
HETATM   13  N   LIG     1      27.047  23.590  21.990  1.00  0.00    -0.173 NA
HETATM   14  C   LIG     1      27.685  24.751  21.687  1.00  0.00     0.350 A 
HETATM   15  O   LIG     1      28.472  25.262  22.524  1.00  0.00    -0.244 OA
HETATM   16  C   LIG     1      23.637  21.370  18.255  1.00  0.00     0.041 A 
HETATM   17  C   LIG     1      22.967  20.163  18.486  1.00  0.00    -0.054 A 
HETATM   18  C   LIG     1      22.060  19.604  17.421  1.00  0.00     0.049 C 
HETATM   19  H   LIG     1      27.979  26.257  20.276  1.00  0.00     0.174 HD
ENDROOT
BRANCH  12  20
HETATM   20  C   LIG     1      25.772  21.185  22.734  1.00  0.00     0.165 C 
BRANCH  20  21
HETATM   21  C   LIG     1      24.961  21.892  23.852  1.00  0.00     0.167 C 
BRANCH  21  22
HETATM   22  C   LIG     1      25.793  22.251  25.125  1.00  0.00     0.179 C 
BRANCH  22  23
HETATM   23  C   LIG     1      25.338  23.547  25.848  1.00  0.00     0.173 C 
BRANCH  23  24
HETATM   24  C   LIG     1      26.496  24.508  26.179  1.00  0.00     0.198 C 
BRANCH  24  25
HETATM   25  O   LIG     1      27.073  25.011  25.005  1.00  0.00    -0.398 OA
HETATM   26  H   LIG     1      26.420  25.651  24.618  1.00  0.00     0.209 HD
ENDBRANCH  24  25
ENDBRANCH  23  24
BRANCH  23  27
HETATM   27  O   LIG     1      24.685  23.183  27.039  1.00  0.00    -0.391 OA
HETATM   28  H   LIG     1      24.524  24.015  27.555  1.00  0.00     0.210 HD
ENDBRANCH  23  27
ENDBRANCH  22  23
BRANCH  22  29
HETATM   29  O   LIG     1      27.168  22.291  24.832  1.00  0.00    -0.390 OA
HETATM   30  H   LIG     1      27.434  21.378  24.550  1.00  0.00     0.210 HD
ENDBRANCH  22  29
ENDBRANCH  21  22
BRANCH  21  31
HETATM   31  O   LIG     1      23.863  21.091  24.212  1.00  0.00    -0.391 OA
HETATM   32  H   LIG     1      23.536  20.645  23.387  1.00  0.00     0.210 HD
ENDBRANCH  21  31
ENDBRANCH  20  21
ENDBRANCH  12  20
TORSDOF 9
ENDMDL
MODEL 5
REMARK VINA RESULT:      -4.6     15.001     16.077
REMARK  9 active torsions:
REMARK  status: ('A' for Active; 'I' for Inactive)
REMARK    1  A    between atoms: N_12  and  C_13 
REMARK    2  A    between atoms: C_13  and  C_14 
REMARK    3  A    between atoms: C_14  and  C_16 
REMARK    4  A    between atoms: C_14  and  O_15 
REMARK    5  A    between atoms: C_16  and  C_18 
REMARK    6  A    between atoms: C_16  and  O_17 
REMARK    7  A    between atoms: C_18  and  C_20 
REMARK    8  A    between atoms: C_18  and  O_19 
REMARK    9  A    between atoms: C_20  and  O_21 
ROOT
HETATM    1  C   LIG     1      28.837  25.136  26.249  1.00  0.00     0.049 C 
HETATM    2  C   LIG     1      27.674  24.458  25.569  1.00  0.00    -0.054 A 
HETATM    3  C   LIG     1      27.711  24.256  24.179  1.00  0.00     0.039 A 
HETATM    4  C   LIG     1      26.649  23.624  23.491  1.00  0.00     0.065 A 
HETATM    5  C   LIG     1      25.536  23.183  24.262  1.00  0.00     0.085 A 
HETATM    6  N   LIG     1      24.492  22.550  23.672  1.00  0.00    -0.237 NA
HETATM    7  C   LIG     1      24.481  22.319  22.343  1.00  0.00     0.171 A 
HETATM    8  C   LIG     1      23.427  21.661  21.713  1.00  0.00     0.282 A 
HETATM    9  N   LIG     1      23.474  21.448  20.369  1.00  0.00    -0.272 N 
HETATM   10  O   LIG     1      22.434  21.261  22.380  1.00  0.00    -0.265 OA
HETATM   11  C   LIG     1      25.614  22.768  21.525  1.00  0.00     0.170 A 
HETATM   12  N   LIG     1      26.668  23.424  22.117  1.00  0.00    -0.325 N 
HETATM   13  N   LIG     1      25.579  22.512  20.190  1.00  0.00    -0.173 NA
HETATM   14  C   LIG     1      24.532  21.864  19.615  1.00  0.00     0.350 A 
HETATM   15  O   LIG     1      24.542  21.649  18.375  1.00  0.00    -0.244 OA
HETATM   16  C   LIG     1      25.498  23.387  25.643  1.00  0.00     0.041 A 
HETATM   17  C   LIG     1      26.553  24.023  26.308  1.00  0.00    -0.054 A 
HETATM   18  C   LIG     1      26.475  24.222  27.800  1.00  0.00     0.049 C 
HETATM   19  H   LIG     1      22.680  20.951  19.903  1.00  0.00     0.174 HD
ENDROOT
BRANCH  12  20
HETATM   20  C   LIG     1      27.801  23.875  21.270  1.00  0.00     0.165 C 
BRANCH  20  21
HETATM   21  C   LIG     1      27.685  25.386  20.941  1.00  0.00     0.167 C 
BRANCH  21  22
HETATM   22  C   LIG     1      27.137  25.696  19.511  1.00  0.00     0.179 C 
BRANCH  22  23
HETATM   23  C   LIG     1      27.526  24.651  18.431  1.00  0.00     0.173 C 
BRANCH  23  24
HETATM   24  C   LIG     1      28.435  25.217  17.323  1.00  0.00     0.198 C 
BRANCH  24  25
HETATM   25  O   LIG     1      29.720  25.476  17.821  1.00  0.00    -0.398 OA
HETATM   26  H   LIG     1      29.607  25.762  18.764  1.00  0.00     0.209 HD
ENDBRANCH  24  25
ENDBRANCH  23  24
BRANCH  23  27
HETATM   27  O   LIG     1      26.345  24.153  17.852  1.00  0.00    -0.391 OA
HETATM   28  H   LIG     1      26.349  24.421  16.896  1.00  0.00     0.210 HD
ENDBRANCH  23  27
ENDBRANCH  22  23
BRANCH  22  29
HETATM   29  O   LIG     1      27.491  26.996  19.108  1.00  0.00    -0.390 OA
HETATM   30  H   LIG     1      26.664  27.436  18.779  1.00  0.00     0.210 HD
ENDBRANCH  22  29
ENDBRANCH  21  22
BRANCH  21  31
HETATM   31  O   LIG     1      28.938  26.001  21.112  1.00  0.00    -0.391 OA
HETATM   32  H   LIG     1      29.589  25.515  20.539  1.00  0.00     0.210 HD
ENDBRANCH  21  31
ENDBRANCH  20  21
ENDBRANCH  12  20
TORSDOF 9
ENDMDL
MODEL 6
REMARK VINA RESULT:      -4.5     15.118     16.755
REMARK  9 active torsions:
REMARK  status: ('A' for Active; 'I' for Inactive)
REMARK    1  A    between atoms: N_12  and  C_13 
REMARK    2  A    between atoms: C_13  and  C_14 
REMARK    3  A    between atoms: C_14  and  C_16 
REMARK    4  A    between atoms: C_14  and  O_15 
REMARK    5  A    between atoms: C_16  and  C_18 
REMARK    6  A    between atoms: C_16  and  O_17 
REMARK    7  A    between atoms: C_18  and  C_20 
REMARK    8  A    between atoms: C_18  and  O_19 
REMARK    9  A    between atoms: C_20  and  O_21 
ROOT
HETATM    1  C   LIG     1      25.356  22.652  18.122  1.00  0.00     0.049 C 
HETATM    2  C   LIG     1      25.154  22.631  19.616  1.00  0.00    -0.054 A 
HETATM    3  C   LIG     1      26.191  23.069  20.458  1.00  0.00     0.039 A 
HETATM    4  C   LIG     1      26.054  23.072  21.866  1.00  0.00     0.065 A 
HETATM    5  C   LIG     1      24.816  22.626  22.408  1.00  0.00     0.085 A 
HETATM    6  N   LIG     1      24.606  22.623  23.747  1.00  0.00    -0.237 NA
HETATM    7  C   LIG     1      25.562  23.044  24.600  1.00  0.00     0.171 A 
HETATM    8  C   LIG     1      25.370  23.062  25.980  1.00  0.00     0.282 A 
HETATM    9  N   LIG     1      26.369  23.506  26.793  1.00  0.00    -0.272 N 
HETATM   10  O   LIG     1      24.279  22.673  26.478  1.00  0.00    -0.265 OA
HETATM   11  C   LIG     1      26.851  23.504  24.067  1.00  0.00     0.170 A 
HETATM   12  N   LIG     1      27.072  23.495  22.711  1.00  0.00    -0.325 N 
HETATM   13  N   LIG     1      27.791  23.933  24.951  1.00  0.00    -0.173 NA
HETATM   14  C   LIG     1      27.562  23.937  26.291  1.00  0.00     0.350 A 
HETATM   15  O   LIG     1      28.462  24.341  27.072  1.00  0.00    -0.244 OA
HETATM   16  C   LIG     1      23.787  22.187  21.571  1.00  0.00     0.041 A 
HETATM   17  C   LIG     1      23.941  22.180  20.180  1.00  0.00    -0.054 A 
HETATM   18  C   LIG     1      22.806  21.703  19.312  1.00  0.00     0.049 C 
HETATM   19  H   LIG     1      26.217  23.518  27.828  1.00  0.00     0.174 HD
ENDROOT
BRANCH  12  20
HETATM   20  C   LIG     1      28.384  23.959  22.193  1.00  0.00     0.165 C 
BRANCH  20  21
HETATM   21  C   LIG     1      28.349  25.473  21.858  1.00  0.00     0.167 C 
BRANCH  21  22
HETATM   22  C   LIG     1      29.150  25.870  20.578  1.00  0.00     0.179 C 
BRANCH  22  23
HETATM   23  C   LIG     1      28.279  26.072  19.309  1.00  0.00     0.173 C 
BRANCH  23  24
HETATM   24  C   LIG     1      28.826  27.146  18.349  1.00  0.00     0.198 C 
BRANCH  24  25
HETATM   25  O   LIG     1      30.128  27.519  18.714  1.00  0.00    -0.398 OA
HETATM   26  H   LIG     1      30.475  26.801  19.305  1.00  0.00     0.209 HD
ENDBRANCH  24  25
ENDBRANCH  23  24
BRANCH  23  27
HETATM   27  O   LIG     1      26.982  26.433  19.715  1.00  0.00    -0.391 OA
HETATM   28  H   LIG     1      26.650  25.716  20.316  1.00  0.00     0.210 HD
ENDBRANCH  23  27
ENDBRANCH  22  23
BRANCH  22  29
HETATM   29  O   LIG     1      30.194  24.958  20.335  1.00  0.00    -0.390 OA
HETATM   30  H   LIG     1      30.893  25.125  21.020  1.00  0.00     0.210 HD
ENDBRANCH  22  29
ENDBRANCH  21  22
BRANCH  21  31
HETATM   31  O   LIG     1      28.822  26.208  22.960  1.00  0.00    -0.391 OA
HETATM   32  H   LIG     1      28.058  26.730  23.321  1.00  0.00     0.210 HD
ENDBRANCH  21  31
ENDBRANCH  20  21
ENDBRANCH  12  20
TORSDOF 9
ENDMDL
MODEL 7
REMARK VINA RESULT:      -4.4     15.250     15.717
REMARK  9 active torsions:
REMARK  status: ('A' for Active; 'I' for Inactive)
REMARK    1  A    between atoms: N_12  and  C_13 
REMARK    2  A    between atoms: C_13  and  C_14 
REMARK    3  A    between atoms: C_14  and  C_16 
REMARK    4  A    between atoms: C_14  and  O_15 
REMARK    5  A    between atoms: C_16  and  C_18 
REMARK    6  A    between atoms: C_16  and  O_17 
REMARK    7  A    between atoms: C_18  and  C_20 
REMARK    8  A    between atoms: C_18  and  O_19 
REMARK    9  A    between atoms: C_20  and  O_21 
ROOT
HETATM    1  C   LIG     1      24.424  22.353  26.654  1.00  0.00     0.049 C 
HETATM    2  C   LIG     1      25.501  23.089  25.897  1.00  0.00    -0.054 A 
HETATM    3  C   LIG     1      25.674  22.835  24.525  1.00  0.00     0.039 A 
HETATM    4  C   LIG     1      26.667  23.498  23.767  1.00  0.00     0.065 A 
HETATM    5  C   LIG     1      27.484  24.449  24.440  1.00  0.00     0.085 A 
HETATM    6  N   LIG     1      28.441  25.138  23.771  1.00  0.00    -0.237 NA
HETATM    7  C   LIG     1      28.643  24.943  22.451  1.00  0.00     0.171 A 
HETATM    8  C   LIG     1      29.611  25.645  21.736  1.00  0.00     0.282 A 
HETATM    9  N   LIG     1      29.763  25.413  20.404  1.00  0.00    -0.272 N 
HETATM   10  O   LIG     1      30.342  26.493  22.316  1.00  0.00    -0.265 OA
HETATM   11  C   LIG     1      27.817  23.963  21.734  1.00  0.00     0.170 A 
HETATM   12  N   LIG     1      26.855  23.252  22.412  1.00  0.00    -0.325 N 
HETATM   13  N   LIG     1      28.036  23.796  20.402  1.00  0.00    -0.173 NA
HETATM   14  C   LIG     1      28.990  24.504  19.742  1.00  0.00     0.350 A 
HETATM   15  O   LIG     1      29.158  24.316  18.509  1.00  0.00    -0.244 OA
HETATM   16  C   LIG     1      27.314  24.698  25.804  1.00  0.00     0.041 A 
HETATM   17  C   LIG     1      26.333  24.027  26.544  1.00  0.00    -0.054 A 
HETATM   18  C   LIG     1      26.180  24.327  28.012  1.00  0.00     0.049 C 
HETATM   19  H   LIG     1      30.492  25.945  19.873  1.00  0.00     0.174 HD
ENDROOT
BRANCH  12  20
HETATM   20  C   LIG     1      26.036  22.263  21.669  1.00  0.00     0.165 C 
BRANCH  20  21
HETATM   21  C   LIG     1      24.770  22.925  21.066  1.00  0.00     0.167 C 
BRANCH  21  22
HETATM   22  C   LIG     1      23.538  21.972  20.942  1.00  0.00     0.179 C 
BRANCH  22  23
HETATM   23  C   LIG     1      23.693  20.854  19.877  1.00  0.00     0.173 C 
BRANCH  23  24
HETATM   24  C   LIG     1      22.829  21.075  18.621  1.00  0.00     0.198 C 
BRANCH  24  25
HETATM   25  O   LIG     1      23.214  22.248  17.955  1.00  0.00    -0.398 OA
HETATM   26  H   LIG     1      23.643  21.965  17.106  1.00  0.00     0.209 HD
ENDBRANCH  24  25
ENDBRANCH  23  24
BRANCH  23  27
HETATM   27  O   LIG     1      23.342  19.628  20.469  1.00  0.00    -0.391 OA
HETATM   28  H   LIG     1      23.935  19.498  21.255  1.00  0.00     0.210 HD
ENDBRANCH  23  27
ENDBRANCH  22  23
BRANCH  22  29
HETATM   29  O   LIG     1      22.354  22.705  20.740  1.00  0.00    -0.390 OA
HETATM   30  H   LIG     1      22.585  23.483  20.170  1.00  0.00     0.210 HD
ENDBRANCH  22  29
ENDBRANCH  21  22
BRANCH  21  31
HETATM   31  O   LIG     1      25.080  23.467  19.805  1.00  0.00    -0.391 OA
HETATM   32  H   LIG     1      25.400  22.722  19.232  1.00  0.00     0.210 HD
ENDBRANCH  21  31
ENDBRANCH  20  21
ENDBRANCH  12  20
TORSDOF 9
ENDMDL
MODEL 8
REMARK VINA RESULT:      -4.4     15.432     16.385
REMARK  9 active torsions:
REMARK  status: ('A' for Active; 'I' for Inactive)
REMARK    1  A    between atoms: N_12  and  C_13 
REMARK    2  A    between atoms: C_13  and  C_14 
REMARK    3  A    between atoms: C_14  and  C_16 
REMARK    4  A    between atoms: C_14  and  O_15 
REMARK    5  A    between atoms: C_16  and  C_18 
REMARK    6  A    between atoms: C_16  and  O_17 
REMARK    7  A    between atoms: C_18  and  C_20 
REMARK    8  A    between atoms: C_18  and  O_19 
REMARK    9  A    between atoms: C_20  and  O_21 
ROOT
HETATM    1  C   LIG     1      21.713  18.697  24.529  1.00  0.00     0.049 C 
HETATM    2  C   LIG     1      22.540  19.778  25.176  1.00  0.00    -0.054 A 
HETATM    3  C   LIG     1      23.543  20.419  24.427  1.00  0.00     0.039 A 
HETATM    4  C   LIG     1      24.347  21.441  24.984  1.00  0.00     0.065 A 
HETATM    5  C   LIG     1      24.097  21.813  26.335  1.00  0.00     0.085 A 
HETATM    6  N   LIG     1      24.814  22.800  26.927  1.00  0.00    -0.237 NA
HETATM    7  C   LIG     1      25.779  23.457  26.251  1.00  0.00     0.171 A 
HETATM    8  C   LIG     1      26.524  24.482  26.830  1.00  0.00     0.282 A 
HETATM    9  N   LIG     1      27.480  25.116  26.097  1.00  0.00    -0.272 N 
HETATM   10  O   LIG     1      26.315  24.827  28.025  1.00  0.00    -0.265 OA
HETATM   11  C   LIG     1      26.061  23.089  24.858  1.00  0.00     0.170 A 
HETATM   12  N   LIG     1      25.346  22.079  24.259  1.00  0.00    -0.325 N 
HETATM   13  N   LIG     1      27.032  23.776  24.200  1.00  0.00    -0.173 NA
HETATM   14  C   LIG     1      27.734  24.772  24.801  1.00  0.00     0.350 A 
HETATM   15  O   LIG     1      28.625  25.381  24.154  1.00  0.00    -0.244 OA
HETATM   16  C   LIG     1      23.103  21.173  27.080  1.00  0.00     0.041 A 
HETATM   17  C   LIG     1      22.322  20.156  26.518  1.00  0.00    -0.054 A 
HETATM   18  C   LIG     1      21.258  19.493  27.354  1.00  0.00     0.049 C 
HETATM   19  H   LIG     1      28.034  25.886  26.538  1.00  0.00     0.174 HD
ENDROOT
BRANCH  12  20
HETATM   20  C   LIG     1      25.650  21.719  22.852  1.00  0.00     0.165 C 
BRANCH  20  21
HETATM   21  C   LIG     1      24.936  22.678  21.863  1.00  0.00     0.167 C 
BRANCH  21  22
HETATM   22  C   LIG     1      24.085  21.959  20.768  1.00  0.00     0.179 C 
BRANCH  22  23
HETATM   23  C   LIG     1      24.677  22.037  19.336  1.00  0.00     0.173 C 
BRANCH  23  24
HETATM   24  C   LIG     1      23.804  21.349  18.268  1.00  0.00     0.198 C 
BRANCH  24  25
HETATM   25  O   LIG     1      22.613  22.061  18.068  1.00  0.00    -0.398 OA
HETATM   26  H   LIG     1      21.877  21.395  18.084  1.00  0.00     0.209 HD
ENDBRANCH  24  25
ENDBRANCH  23  24
BRANCH  23  27
HETATM   27  O   LIG     1      25.949  21.437  19.349  1.00  0.00    -0.391 OA
HETATM   28  H   LIG     1      25.995  20.822  18.571  1.00  0.00     0.210 HD
ENDBRANCH  23  27
ENDBRANCH  22  23
BRANCH  22  29
HETATM   29  O   LIG     1      22.752  22.410  20.790  1.00  0.00    -0.390 OA
HETATM   30  H   LIG     1      22.186  21.668  20.453  1.00  0.00     0.210 HD
ENDBRANCH  22  29
ENDBRANCH  21  22
BRANCH  21  31
HETATM   31  O   LIG     1      25.887  23.514  21.252  1.00  0.00    -0.391 OA
HETATM   32  H   LIG     1      25.392  24.173  20.697  1.00  0.00     0.210 HD
ENDBRANCH  21  31
ENDBRANCH  20  21
ENDBRANCH  12  20
TORSDOF 9
ENDMDL
MODEL 9
REMARK VINA RESULT:      -4.3     14.961     15.657
REMARK  9 active torsions:
REMARK  status: ('A' for Active; 'I' for Inactive)
REMARK    1  A    between atoms: N_12  and  C_13 
REMARK    2  A    between atoms: C_13  and  C_14 
REMARK    3  A    between atoms: C_14  and  C_16 
REMARK    4  A    between atoms: C_14  and  O_15 
REMARK    5  A    between atoms: C_16  and  C_18 
REMARK    6  A    between atoms: C_16  and  O_17 
REMARK    7  A    between atoms: C_18  and  C_20 
REMARK    8  A    between atoms: C_18  and  O_19 
REMARK    9  A    between atoms: C_20  and  O_21 
ROOT
HETATM    1  C   LIG     1      26.123  22.743  25.121  1.00  0.00     0.049 C 
HETATM    2  C   LIG     1      26.872  23.549  24.092  1.00  0.00    -0.054 A 
HETATM    3  C   LIG     1      26.744  23.219  22.731  1.00  0.00     0.039 A 
HETATM    4  C   LIG     1      27.423  23.944  21.724  1.00  0.00     0.065 A 
HETATM    5  C   LIG     1      28.238  25.037  22.134  1.00  0.00     0.085 A 
HETATM    6  N   LIG     1      28.900  25.789  21.222  1.00  0.00    -0.237 NA
HETATM    7  C   LIG     1      28.803  25.525  19.902  1.00  0.00     0.171 A 
HETATM    8  C   LIG     1      29.464  26.287  18.942  1.00  0.00     0.282 A 
HETATM    9  N   LIG     1      29.322  25.979  17.623  1.00  0.00    -0.272 N 
HETATM   10  O   LIG     1      30.188  27.261  19.287  1.00  0.00    -0.265 OA
HETATM   11  C   LIG     1      27.974  24.399  19.452  1.00  0.00     0.170 A 
HETATM   12  N   LIG     1      27.312  23.626  20.376  1.00  0.00    -0.325 N 
HETATM   13  N   LIG     1      27.887  24.164  18.116  1.00  0.00    -0.173 NA
HETATM   14  C   LIG     1      28.546  24.935  17.212  1.00  0.00     0.350 A 
HETATM   15  O   LIG     1      28.437  24.680  15.984  1.00  0.00    -0.244 OA
HETATM   16  C   LIG     1      28.368  25.362  23.487  1.00  0.00     0.041 A 
HETATM   17  C   LIG     1      27.697  24.629  24.473  1.00  0.00    -0.054 A 
HETATM   18  C   LIG     1      27.861  25.014  25.921  1.00  0.00     0.049 C 
HETATM   19  H   LIG     1      29.820  26.558  16.908  1.00  0.00     0.174 HD
ENDROOT
BRANCH  12  20
HETATM   20  C   LIG     1      26.483  22.490  19.900  1.00  0.00     0.165 C 
BRANCH  20  21
HETATM   21  C   LIG     1      25.057  22.962  19.513  1.00  0.00     0.167 C 
BRANCH  21  22
HETATM   22  C   LIG     1      23.905  22.110  20.135  1.00  0.00     0.179 C 
BRANCH  22  23
HETATM   23  C   LIG     1      23.331  22.673  21.463  1.00  0.00     0.173 C 
BRANCH  23  24
HETATM   24  C   LIG     1      23.432  21.690  22.645  1.00  0.00     0.198 C 
BRANCH  24  25
HETATM   25  O   LIG     1      22.436  20.706  22.557  1.00  0.00    -0.398 OA
HETATM   26  H   LIG     1      21.774  21.030  21.893  1.00  0.00     0.209 HD
ENDBRANCH  24  25
ENDBRANCH  23  24
BRANCH  23  27
HETATM   27  O   LIG     1      21.981  23.009  21.255  1.00  0.00    -0.391 OA
HETATM   28  H   LIG     1      21.681  22.534  20.436  1.00  0.00     0.210 HD
ENDBRANCH  23  27
ENDBRANCH  22  23
BRANCH  22  29
HETATM   29  O   LIG     1      24.295  20.766  20.281  1.00  0.00    -0.390 OA
HETATM   30  H   LIG     1      24.946  20.730  21.029  1.00  0.00     0.210 HD
ENDBRANCH  22  29
ENDBRANCH  21  22
BRANCH  21  31
HETATM   31  O   LIG     1      24.933  22.978  18.113  1.00  0.00    -0.391 OA
HETATM   32  H   LIG     1      24.983  22.037  17.798  1.00  0.00     0.210 HD
ENDBRANCH  21  31
ENDBRANCH  20  21
ENDBRANCH  12  20
TORSDOF 9
ENDMDL
MODEL 10
REMARK VINA RESULT:      -4.2     15.073     15.902
REMARK  9 active torsions:
REMARK  status: ('A' for Active; 'I' for Inactive)
REMARK    1  A    between atoms: N_12  and  C_13 
REMARK    2  A    between atoms: C_13  and  C_14 
REMARK    3  A    between atoms: C_14  and  C_16 
REMARK    4  A    between atoms: C_14  and  O_15 
REMARK    5  A    between atoms: C_16  and  C_18 
REMARK    6  A    between atoms: C_16  and  O_17 
REMARK    7  A    between atoms: C_18  and  C_20 
REMARK    8  A    between atoms: C_18  and  O_19 
REMARK    9  A    between atoms: C_20  and  O_21 
ROOT
HETATM    1  C   LIG     1      28.915  24.585  26.780  1.00  0.00     0.049 C 
HETATM    2  C   LIG     1      28.728  24.909  25.319  1.00  0.00    -0.054 A 
HETATM    3  C   LIG     1      27.898  24.091  24.533  1.00  0.00     0.039 A 
HETATM    4  C   LIG     1      27.687  24.351  23.158  1.00  0.00     0.065 A 
HETATM    5  C   LIG     1      28.336  25.486  22.595  1.00  0.00     0.085 A 
HETATM    6  N   LIG     1      28.161  25.808  21.290  1.00  0.00    -0.237 NA
HETATM    7  C   LIG     1      27.367  25.065  20.492  1.00  0.00     0.171 A 
HETATM    8  C   LIG     1      27.160  25.379  19.151  1.00  0.00     0.282 A 
HETATM    9  N   LIG     1      26.340  24.597  18.395  1.00  0.00    -0.272 N 
HETATM   10  O   LIG     1      27.724  26.382  18.635  1.00  0.00    -0.265 OA
HETATM   11  C   LIG     1      26.689  23.886  21.047  1.00  0.00     0.170 A 
HETATM   12  N   LIG     1      26.876  23.548  22.366  1.00  0.00    -0.325 N 
HETATM   13  N   LIG     1      25.887  23.163  20.221  1.00  0.00    -0.173 NA
HETATM   14  C   LIG     1      25.710  23.505  18.918  1.00  0.00     0.350 A 
HETATM   15  O   LIG     1      24.958  22.806  18.190  1.00  0.00    -0.244 OA
HETATM   16  C   LIG     1      29.163  26.296  23.376  1.00  0.00     0.041 A 
HETATM   17  C   LIG     1      29.371  26.020  24.733  1.00  0.00    -0.054 A 
HETATM   18  C   LIG     1      30.268  26.921  25.543  1.00  0.00     0.049 C 
HETATM   19  H   LIG     1      26.188  24.840  17.389  1.00  0.00     0.174 HD
ENDROOT
BRANCH  12  20
HETATM   20  C   LIG     1      26.187  22.348  22.905  1.00  0.00     0.165 C 
BRANCH  20  21
HETATM   21  C   LIG     1      24.769  22.704  23.423  1.00  0.00     0.167 C 
BRANCH  21  22
HETATM   22  C   LIG     1      24.323  21.903  24.688  1.00  0.00     0.179 C 
BRANCH  22  23
HETATM   23  C   LIG     1      24.804  22.504  26.035  1.00  0.00     0.173 C 
BRANCH  23  24
HETATM   24  C   LIG     1      24.001  22.010  27.254  1.00  0.00     0.198 C 
BRANCH  24  25
HETATM   25  O   LIG     1      22.832  21.353  26.842  1.00  0.00    -0.398 OA
HETATM   26  H   LIG     1      22.940  20.398  27.090  1.00  0.00     0.209 HD
ENDBRANCH  24  25
ENDBRANCH  23  24
BRANCH  23  27
HETATM   27  O   LIG     1      24.707  23.905  25.955  1.00  0.00    -0.391 OA
HETATM   28  H   LIG     1      25.216  24.191  25.152  1.00  0.00     0.210 HD
ENDBRANCH  23  27
ENDBRANCH  22  23
BRANCH  22  29
HETATM   29  O   LIG     1      24.688  20.548  24.579  1.00  0.00    -0.390 OA
HETATM   30  H   LIG     1      25.021  20.262  25.469  1.00  0.00     0.210 HD
ENDBRANCH  22  29
ENDBRANCH  21  22
BRANCH  21  31
HETATM   31  O   LIG     1      23.833  22.520  22.390  1.00  0.00    -0.391 OA
HETATM   32  H   LIG     1      23.941  21.593  22.051  1.00  0.00     0.210 HD
ENDBRANCH  21  31
ENDBRANCH  20  21
ENDBRANCH  12  20
TORSDOF 9
ENDMDL
MODEL 11
REMARK VINA RESULT:      -4.1     15.333     16.072
REMARK  9 active torsions:
REMARK  status: ('A' for Active; 'I' for Inactive)
REMARK    1  A    between atoms: N_12  and  C_13 
REMARK    2  A    between atoms: C_13  and  C_14 
REMARK    3  A    between atoms: C_14  and  C_16 
REMARK    4  A    between atoms: C_14  and  O_15 
REMARK    5  A    between atoms: C_16  and  C_18 
REMARK    6  A    between atoms: C_16  and  O_17 
REMARK    7  A    between atoms: C_18  and  C_20 
REMARK    8  A    between atoms: C_18  and  O_19 
REMARK    9  A    between atoms: C_20  and  O_21 
ROOT
HETATM    1  C   LIG     1      22.551  19.876  24.026  1.00  0.00     0.049 C 
HETATM    2  C   LIG     1      23.597  20.896  24.400  1.00  0.00    -0.054 A 
HETATM    3  C   LIG     1      24.457  21.395  23.407  1.00  0.00     0.039 A 
HETATM    4  C   LIG     1      25.454  22.355  23.702  1.00  0.00     0.065 A 
HETATM    5  C   LIG     1      25.550  22.813  25.046  1.00  0.00     0.085 A 
HETATM    6  N   LIG     1      26.467  23.747  25.396  1.00  0.00    -0.237 NA
HETATM    7  C   LIG     1      27.310  24.269  24.482  1.00  0.00     0.171 A 
HETATM    8  C   LIG     1      28.255  25.239  24.811  1.00  0.00     0.282 A 
HETATM    9  N   LIG     1      29.074  25.737  23.844  1.00  0.00    -0.272 N 
HETATM   10  O   LIG     1      28.353  25.658  25.996  1.00  0.00    -0.265 OA
HETATM   11  C   LIG     1      27.236  23.811  23.089  1.00  0.00     0.170 A 
HETATM   12  N   LIG     1      26.317  22.852  22.733  1.00  0.00    -0.325 N 
HETATM   13  N   LIG     1      28.091  24.363  22.188  1.00  0.00    -0.173 NA
HETATM   14  C   LIG     1      28.996  25.309  22.551  1.00  0.00     0.350 A 
HETATM   15  O   LIG     1      29.769  25.792  21.683  1.00  0.00    -0.244 OA
HETATM   16  C   LIG     1      24.697  22.313  26.033  1.00  0.00     0.041 A 
HETATM   17  C   LIG     1      23.722  21.356  25.728  1.00  0.00    -0.054 A 
HETATM   18  C   LIG     1      22.819  20.845  26.821  1.00  0.00     0.049 C 
HETATM   19  H   LIG     1      29.780  26.466  24.099  1.00  0.00     0.174 HD
ENDROOT
BRANCH  12  20
HETATM   20  C   LIG     1      26.262  22.398  21.321  1.00  0.00     0.165 C 
BRANCH  20  21
HETATM   21  C   LIG     1      25.223  23.217  20.510  1.00  0.00     0.167 C 
BRANCH  21  22
HETATM   22  C   LIG     1      24.652  22.477  19.259  1.00  0.00     0.179 C 
BRANCH  22  23
HETATM   23  C   LIG     1      23.228  21.890  19.452  1.00  0.00     0.173 C 
BRANCH  23  24
HETATM   24  C   LIG     1      23.221  20.397  19.832  1.00  0.00     0.198 C 
BRANCH  24  25
HETATM   25  O   LIG     1      23.107  19.595  18.687  1.00  0.00    -0.398 OA
HETATM   26  H   LIG     1      22.444  20.036  18.096  1.00  0.00     0.209 HD
ENDBRANCH  24  25
ENDBRANCH  23  24
BRANCH  23  27
HETATM   27  O   LIG     1      22.511  22.065  18.254  1.00  0.00    -0.391 OA
HETATM   28  H   LIG     1      21.545  22.027  18.479  1.00  0.00     0.210 HD
ENDBRANCH  23  27
ENDBRANCH  22  23
BRANCH  22  29
HETATM   29  O   LIG     1      25.548  21.492  18.805  1.00  0.00    -0.390 OA
HETATM   30  H   LIG     1      25.641  21.610  17.824  1.00  0.00     0.210 HD
ENDBRANCH  22  29
ENDBRANCH  21  22
BRANCH  21  31
HETATM   31  O   LIG     1      25.795  24.441  20.118  1.00  0.00    -0.391 OA
HETATM   32  H   LIG     1      26.556  24.234  19.514  1.00  0.00     0.210 HD
ENDBRANCH  21  31
ENDBRANCH  20  21
ENDBRANCH  12  20
TORSDOF 9
ENDMDL
MODEL 12
REMARK VINA RESULT:      -4.1     15.355     16.387
REMARK  9 active torsions:
REMARK  status: ('A' for Active; 'I' for Inactive)
REMARK    1  A    between atoms: N_12  and  C_13 
REMARK    2  A    between atoms: C_13  and  C_14 
REMARK    3  A    between atoms: C_14  and  C_16 
REMARK    4  A    between atoms: C_14  and  O_15 
REMARK    5  A    between atoms: C_16  and  C_18 
REMARK    6  A    between atoms: C_16  and  O_17 
REMARK    7  A    between atoms: C_18  and  C_20 
REMARK    8  A    between atoms: C_18  and  O_19 
REMARK    9  A    between atoms: C_20  and  O_21 
ROOT
HETATM    1  C   LIG     1      30.064  26.097  22.452  1.00  0.00     0.049 C 
HETATM    2  C   LIG     1      28.965  25.392  23.207  1.00  0.00    -0.054 A 
HETATM    3  C   LIG     1      28.137  24.482  22.526  1.00  0.00     0.039 A 
HETATM    4  C   LIG     1      27.093  23.793  23.186  1.00  0.00     0.065 A 
HETATM    5  C   LIG     1      26.914  24.041  24.576  1.00  0.00     0.085 A 
HETATM    6  N   LIG     1      25.947  23.399  25.277  1.00  0.00    -0.237 NA
HETATM    7  C   LIG     1      25.132  22.507  24.677  1.00  0.00     0.171 A 
HETATM    8  C   LIG     1      24.138  21.825  25.375  1.00  0.00     0.282 A 
HETATM    9  N   LIG     1      23.350  20.928  24.719  1.00  0.00    -0.272 N 
HETATM   10  O   LIG     1      23.967  22.030  26.607  1.00  0.00    -0.265 OA
HETATM   11  C   LIG     1      25.292  22.236  23.243  1.00  0.00     0.170 A 
HETATM   12  N   LIG     1      26.262  22.896  22.526  1.00  0.00    -0.325 N 
HETATM   13  N   LIG     1      24.462  21.324  22.669  1.00  0.00    -0.173 NA
HETATM   14  C   LIG     1      23.507  20.678  23.387  1.00  0.00     0.350 A 
HETATM   15  O   LIG     1      22.761  19.842  22.814  1.00  0.00    -0.244 OA
HETATM   16  C   LIG     1      27.735  24.948  25.250  1.00  0.00     0.041 A 
HETATM   17  C   LIG     1      28.758  25.631  24.582  1.00  0.00    -0.054 A 
HETATM   18  C   LIG     1      29.624  26.599  25.346  1.00  0.00     0.049 C 
HETATM   19  H   LIG     1      22.606  20.418  25.250  1.00  0.00     0.174 HD
ENDROOT
BRANCH  12  20
HETATM   20  C   LIG     1      26.402  22.611  21.076  1.00  0.00     0.165 C 
BRANCH  20  21
HETATM   21  C   LIG     1      25.380  23.430  20.244  1.00  0.00     0.167 C 
BRANCH  21  22
HETATM   22  C   LIG     1      24.911  22.731  18.928  1.00  0.00     0.179 C 
BRANCH  22  23
HETATM   23  C   LIG     1      23.747  21.722  19.114  1.00  0.00     0.173 C 
BRANCH  23  24
HETATM   24  C   LIG     1      24.180  20.249  18.977  1.00  0.00     0.198 C 
BRANCH  24  25
HETATM   25  O   LIG     1      23.831  19.522  20.124  1.00  0.00    -0.398 OA
HETATM   26  H   LIG     1      24.334  18.667  20.083  1.00  0.00     0.209 HD
ENDBRANCH  24  25
ENDBRANCH  23  24
BRANCH  23  27
HETATM   27  O   LIG     1      22.759  22.004  18.154  1.00  0.00    -0.391 OA
HETATM   28  H   LIG     1      22.698  21.217  17.552  1.00  0.00     0.210 HD
ENDBRANCH  23  27
ENDBRANCH  22  23
BRANCH  22  29
HETATM   29  O   LIG     1      25.997  22.135  18.261  1.00  0.00    -0.390 OA
HETATM   30  H   LIG     1      26.545  21.672  18.948  1.00  0.00     0.210 HD
ENDBRANCH  22  29
ENDBRANCH  21  22
BRANCH  21  31
HETATM   31  O   LIG     1      25.925  24.692  19.944  1.00  0.00    -0.391 OA
HETATM   32  H   LIG     1      26.893  24.658  20.161  1.00  0.00     0.210 HD
ENDBRANCH  21  31
ENDBRANCH  20  21
ENDBRANCH  12  20
TORSDOF 9
ENDMDL
MODEL 13
REMARK VINA RESULT:      -4.0     15.428     16.900
REMARK  9 active torsions:
REMARK  status: ('A' for Active; 'I' for Inactive)
REMARK    1  A    between atoms: N_12  and  C_13 
REMARK    2  A    between atoms: C_13  and  C_14 
REMARK    3  A    between atoms: C_14  and  C_16 
REMARK    4  A    between atoms: C_14  and  O_15 
REMARK    5  A    between atoms: C_16  and  C_18 
REMARK    6  A    between atoms: C_16  and  O_17 
REMARK    7  A    between atoms: C_18  and  C_20 
REMARK    8  A    between atoms: C_18  and  O_19 
REMARK    9  A    between atoms: C_20  and  O_21 
ROOT
HETATM    1  C   LIG     1      22.810  20.394  22.215  1.00  0.00     0.049 C 
HETATM    2  C   LIG     1      23.849  21.410  21.813  1.00  0.00    -0.054 A 
HETATM    3  C   LIG     1      24.794  21.841  22.761  1.00  0.00     0.039 A 
HETATM    4  C   LIG     1      25.790  22.791  22.437  1.00  0.00     0.065 A 
HETATM    5  C   LIG     1      25.815  23.291  21.104  1.00  0.00     0.085 A 
HETATM    6  N   LIG     1      26.756  24.187  20.718  1.00  0.00    -0.237 NA
HETATM    7  C   LIG     1      27.694  24.626  21.583  1.00  0.00     0.171 A 
HETATM    8  C   LIG     1      28.679  25.537  21.210  1.00  0.00     0.282 A 
HETATM    9  N   LIG     1      29.606  25.938  22.123  1.00  0.00    -0.272 N 
HETATM   10  O   LIG     1      28.718  25.990  20.033  1.00  0.00    -0.265 OA
HETATM   11  C   LIG     1      27.688  24.129  22.965  1.00  0.00     0.170 A 
HETATM   12  N   LIG     1      26.726  23.232  23.364  1.00  0.00    -0.325 N 
HETATM   13  N   LIG     1      28.652  24.582  23.810  1.00  0.00    -0.173 NA
HETATM   14  C   LIG     1      29.597  25.469  23.405  1.00  0.00     0.350 A 
HETATM   15  O   LIG     1      30.470  25.861  24.222  1.00  0.00    -0.244 OA
HETATM   16  C   LIG     1      24.874  22.866  20.164  1.00  0.00     0.041 A 
HETATM   17  C   LIG     1      23.887  21.932  20.502  1.00  0.00    -0.054 A 
HETATM   18  C   LIG     1      22.892  21.496  19.458  1.00  0.00     0.049 C 
HETATM   19  H   LIG     1      30.344  26.622  21.835  1.00  0.00     0.174 HD
ENDROOT
BRANCH  12  20
HETATM   20  C   LIG     1      26.734  22.747  24.767  1.00  0.00     0.165 C 
BRANCH  20  21
HETATM   21  C   LIG     1      26.070  23.777  25.718  1.00  0.00     0.167 C 
BRANCH  21  22
HETATM   22  C   LIG     1      26.638  23.772  27.173  1.00  0.00     0.179 C 
BRANCH  22  23
HETATM   23  C   LIG     1      27.315  25.100  27.606  1.00  0.00     0.173 C 
BRANCH  23  24
HETATM   24  C   LIG     1      28.813  24.949  27.936  1.00  0.00     0.198 C 
BRANCH  24  25
HETATM   25  O   LIG     1      29.541  24.607  26.788  1.00  0.00    -0.398 OA
HETATM   26  H   LIG     1      29.774  25.458  26.334  1.00  0.00     0.209 HD
ENDBRANCH  24  25
ENDBRANCH  23  24
BRANCH  23  27
HETATM   27  O   LIG     1      26.640  25.593  28.737  1.00  0.00    -0.391 OA
HETATM   28  H   LIG     1      27.297  26.111  29.271  1.00  0.00     0.210 HD
ENDBRANCH  23  27
ENDBRANCH  22  23
BRANCH  22  29
HETATM   29  O   LIG     1      27.497  22.676  27.374  1.00  0.00    -0.390 OA
HETATM   30  H   LIG     1      28.080  22.898  28.146  1.00  0.00     0.210 HD
ENDBRANCH  22  29
ENDBRANCH  21  22
BRANCH  21  31
HETATM   31  O   LIG     1      24.681  23.558  25.750  1.00  0.00    -0.391 OA
HETATM   32  H   LIG     1      24.338  23.686  24.826  1.00  0.00     0.210 HD
ENDBRANCH  21  31
ENDBRANCH  20  21
ENDBRANCH  12  20
TORSDOF 9
ENDMDL
MODEL 14
REMARK VINA RESULT:      -4.0     17.458     19.991
REMARK  9 active torsions:
REMARK  status: ('A' for Active; 'I' for Inactive)
REMARK    1  A    between atoms: N_12  and  C_13 
REMARK    2  A    between atoms: C_13  and  C_14 
REMARK    3  A    between atoms: C_14  and  C_16 
REMARK    4  A    between atoms: C_14  and  O_15 
REMARK    5  A    between atoms: C_16  and  C_18 
REMARK    6  A    between atoms: C_16  and  O_17 
REMARK    7  A    between atoms: C_18  and  C_20 
REMARK    8  A    between atoms: C_18  and  O_19 
REMARK    9  A    between atoms: C_20  and  O_21 
ROOT
HETATM    1  C   LIG     1      29.418  29.069  29.241  1.00  0.00     0.049 C 
HETATM    2  C   LIG     1      28.966  28.015  30.220  1.00  0.00    -0.054 A 
HETATM    3  C   LIG     1      28.806  28.357  31.574  1.00  0.00     0.039 A 
HETATM    4  C   LIG     1      28.383  27.408  32.535  1.00  0.00     0.065 A 
HETATM    5  C   LIG     1      28.110  26.087  32.080  1.00  0.00     0.085 A 
HETATM    6  N   LIG     1      27.680  25.132  32.940  1.00  0.00    -0.237 NA
HETATM    7  C   LIG     1      27.497  25.408  34.248  1.00  0.00     0.171 A 
HETATM    8  C   LIG     1      27.045  24.450  35.153  1.00  0.00     0.282 A 
HETATM    9  N   LIG     1      26.871  24.788  36.460  1.00  0.00    -0.272 N 
HETATM   10  O   LIG     1      26.796  23.275  34.767  1.00  0.00    -0.265 OA
HETATM   11  C   LIG     1      27.777  26.761  34.744  1.00  0.00     0.170 A 
HETATM   12  N   LIG     1      28.227  27.728  33.877  1.00  0.00    -0.325 N 
HETATM   13  N   LIG     1      27.573  27.012  36.065  1.00  0.00    -0.173 NA
HETATM   14  C   LIG     1      27.128  26.048  36.914  1.00  0.00     0.350 A 
HETATM   15  O   LIG     1      26.954  26.325  38.129  1.00  0.00    -0.244 OA
HETATM   16  C   LIG     1      28.274  25.747  30.735  1.00  0.00     0.041 A 
HETATM   17  C   LIG     1      28.702  26.695  29.797  1.00  0.00    -0.054 A 
HETATM   18  C   LIG     1      28.863  26.289  28.355  1.00  0.00     0.049 C 
HETATM   19  H   LIG     1      26.530  24.063  37.133  1.00  0.00     0.174 HD
ENDROOT
BRANCH  12  20
HETATM   20  C   LIG     1      28.509  29.088  34.401  1.00  0.00     0.165 C 
BRANCH  20  21
HETATM   21  C   LIG     1      27.245  29.985  34.337  1.00  0.00     0.167 C 
BRANCH  21  22
HETATM   22  C   LIG     1      27.148  31.046  35.480  1.00  0.00     0.179 C 
BRANCH  22  23
HETATM   23  C   LIG     1      27.911  30.667  36.778  1.00  0.00     0.173 C 
BRANCH  23  24
HETATM   24  C   LIG     1      26.987  30.399  37.981  1.00  0.00     0.198 C 
BRANCH  24  25
HETATM   25  O   LIG     1      26.172  29.284  37.741  1.00  0.00    -0.398 OA
HETATM   26  H   LIG     1      25.331  29.627  37.342  1.00  0.00     0.209 HD
ENDBRANCH  24  25
ENDBRANCH  23  24
BRANCH  23  27
HETATM   27  O   LIG     1      28.791  31.717  37.095  1.00  0.00    -0.391 OA
HETATM   28  H   LIG     1      29.610  31.311  37.482  1.00  0.00     0.210 HD
ENDBRANCH  23  27
ENDBRANCH  22  23
BRANCH  22  29
HETATM   29  O   LIG     1      25.805  31.365  35.757  1.00  0.00    -0.390 OA
HETATM   30  H   LIG     1      25.755  31.613  36.716  1.00  0.00     0.210 HD
ENDBRANCH  22  29
ENDBRANCH  21  22
BRANCH  21  31
HETATM   31  O   LIG     1      26.095  29.176  34.342  1.00  0.00    -0.391 OA
HETATM   32  H   LIG     1      26.143  28.585  33.544  1.00  0.00     0.210 HD
ENDBRANCH  21  31
ENDBRANCH  20  21
ENDBRANCH  12  20
TORSDOF 9
ENDMDL
MODEL 15
REMARK VINA RESULT:      -3.9     15.091     16.991
REMARK  9 active torsions:
REMARK  status: ('A' for Active; 'I' for Inactive)
REMARK    1  A    between atoms: N_12  and  C_13 
REMARK    2  A    between atoms: C_13  and  C_14 
REMARK    3  A    between atoms: C_14  and  C_16 
REMARK    4  A    between atoms: C_14  and  O_15 
REMARK    5  A    between atoms: C_16  and  C_18 
REMARK    6  A    between atoms: C_16  and  O_17 
REMARK    7  A    between atoms: C_18  and  C_20 
REMARK    8  A    between atoms: C_18  and  O_19 
REMARK    9  A    between atoms: C_20  and  O_21 
ROOT
HETATM    1  C   LIG     1      24.549  20.141  17.615  1.00  0.00     0.049 C 
HETATM    2  C   LIG     1      24.414  20.413  19.092  1.00  0.00    -0.054 A 
HETATM    3  C   LIG     1      25.304  21.308  19.712  1.00  0.00     0.039 A 
HETATM    4  C   LIG     1      25.220  21.601  21.093  1.00  0.00     0.065 A 
HETATM    5  C   LIG     1      24.188  20.966  21.840  1.00  0.00     0.085 A 
HETATM    6  N   LIG     1      24.035  21.218  23.163  1.00  0.00    -0.237 NA
HETATM    7  C   LIG     1      24.853  22.076  23.806  1.00  0.00     0.171 A 
HETATM    8  C   LIG     1      24.711  22.362  25.162  1.00  0.00     0.282 A 
HETATM    9  N   LIG     1      25.561  23.244  25.756  1.00  0.00    -0.272 N 
HETATM   10  O   LIG     1      23.801  21.811  25.839  1.00  0.00    -0.265 OA
HETATM   11  C   LIG     1      25.929  22.740  23.060  1.00  0.00     0.170 A 
HETATM   12  N   LIG     1      26.096  22.477  21.721  1.00  0.00    -0.325 N 
HETATM   13  N   LIG     1      26.731  23.608  23.733  1.00  0.00    -0.173 NA
HETATM   14  C   LIG     1      26.557  23.861  25.056  1.00  0.00     0.350 A 
HETATM   15  O   LIG     1      27.323  24.672  25.639  1.00  0.00    -0.244 OA
HETATM   16  C   LIG     1      23.306  20.075  21.224  1.00  0.00     0.041 A 
HETATM   17  C   LIG     1      23.408  19.787  19.858  1.00  0.00    -0.054 A 
HETATM   18  C   LIG     1      22.435  18.822  19.231  1.00  0.00     0.049 C 
HETATM   19  H   LIG     1      25.448  23.454  26.775  1.00  0.00     0.174 HD
ENDROOT
BRANCH  12  20
HETATM   20  C   LIG     1      27.195  23.155  20.987  1.00  0.00     0.165 C 
BRANCH  20  21
HETATM   21  C   LIG     1      26.985  24.692  20.962  1.00  0.00     0.167 C 
BRANCH  21  22
HETATM   22  C   LIG     1      26.466  25.250  19.598  1.00  0.00     0.179 C 
BRANCH  22  23
HETATM   23  C   LIG     1      26.758  24.339  18.376  1.00  0.00     0.173 C 
BRANCH  23  24
HETATM   24  C   LIG     1      27.960  24.806  17.532  1.00  0.00     0.198 C 
BRANCH  24  25
HETATM   25  O   LIG     1      29.098  24.962  18.335  1.00  0.00    -0.398 OA
HETATM   26  H   LIG     1      29.704  25.582  17.852  1.00  0.00     0.209 HD
ENDBRANCH  24  25
ENDBRANCH  23  24
BRANCH  23  27
HETATM   27  O   LIG     1      25.609  24.306  17.565  1.00  0.00    -0.391 OA
HETATM   28  H   LIG     1      25.418  25.238  17.284  1.00  0.00     0.210 HD
ENDBRANCH  23  27
ENDBRANCH  22  23
BRANCH  22  29
HETATM   29  O   LIG     1      26.936  26.558  19.379  1.00  0.00    -0.390 OA
HETATM   30  H   LIG     1      26.188  27.176  19.584  1.00  0.00     0.210 HD
ENDBRANCH  22  29
ENDBRANCH  21  22
BRANCH  21  31
HETATM   31  O   LIG     1      28.185  25.334  21.312  1.00  0.00    -0.391 OA
HETATM   32  H   LIG     1      28.678  25.525  20.471  1.00  0.00     0.210 HD
ENDBRANCH  21  31
ENDBRANCH  20  21
ENDBRANCH  12  20
TORSDOF 9
ENDMDL
MODEL 16
REMARK VINA RESULT:      -3.8     16.462     18.434
REMARK  9 active torsions:
REMARK  status: ('A' for Active; 'I' for Inactive)
REMARK    1  A    between atoms: N_12  and  C_13 
REMARK    2  A    between atoms: C_13  and  C_14 
REMARK    3  A    between atoms: C_14  and  C_16 
REMARK    4  A    between atoms: C_14  and  O_15 
REMARK    5  A    between atoms: C_16  and  C_18 
REMARK    6  A    between atoms: C_16  and  O_17 
REMARK    7  A    between atoms: C_18  and  C_20 
REMARK    8  A    between atoms: C_18  and  O_19 
REMARK    9  A    between atoms: C_20  and  O_21 
ROOT
HETATM    1  C   LIG     1      21.742  22.809  21.202  1.00  0.00     0.049 C 
HETATM    2  C   LIG     1      23.101  22.156  21.204  1.00  0.00    -0.054 A 
HETATM    3  C   LIG     1      23.793  22.009  22.418  1.00  0.00     0.039 A 
HETATM    4  C   LIG     1      25.070  21.402  22.477  1.00  0.00     0.065 A 
HETATM    5  C   LIG     1      25.630  20.927  21.257  1.00  0.00     0.085 A 
HETATM    6  N   LIG     1      26.840  20.316  21.242  1.00  0.00    -0.237 NA
HETATM    7  C   LIG     1      27.542  20.137  22.379  1.00  0.00     0.171 A 
HETATM    8  C   LIG     1      28.782  19.502  22.395  1.00  0.00     0.282 A 
HETATM    9  N   LIG     1      29.442  19.342  23.575  1.00  0.00    -0.272 N 
HETATM   10  O   LIG     1      29.293  19.074  21.324  1.00  0.00    -0.265 OA
HETATM   11  C   LIG     1      26.989  20.621  23.651  1.00  0.00     0.170 A 
HETATM   12  N   LIG     1      25.769  21.255  23.668  1.00  0.00    -0.325 N 
HETATM   13  N   LIG     1      27.715  20.417  24.782  1.00  0.00    -0.173 NA
HETATM   14  C   LIG     1      28.920  19.790  24.753  1.00  0.00     0.350 A 
HETATM   15  O   LIG     1      29.558  19.624  25.825  1.00  0.00    -0.244 OA
HETATM   16  C   LIG     1      24.944  21.078  20.050  1.00  0.00     0.041 A 
HETATM   17  C   LIG     1      23.685  21.690  20.006  1.00  0.00    -0.054 A 
HETATM   18  C   LIG     1      22.976  21.829  18.684  1.00  0.00     0.049 C 
HETATM   19  H   LIG     1      30.372  18.862  23.579  1.00  0.00     0.174 HD
ENDROOT
BRANCH  12  20
HETATM   20  C   LIG     1      25.231  21.742  24.963  1.00  0.00     0.165 C 
BRANCH  20  21
HETATM   21  C   LIG     1      25.439  23.272  25.115  1.00  0.00     0.167 C 
BRANCH  21  22
HETATM   22  C   LIG     1      26.898  23.692  25.481  1.00  0.00     0.179 C 
BRANCH  22  23
HETATM   23  C   LIG     1      27.354  23.268  26.902  1.00  0.00     0.173 C 
BRANCH  23  24
HETATM   24  C   LIG     1      27.492  24.449  27.884  1.00  0.00     0.198 C 
BRANCH  24  25
HETATM   25  O   LIG     1      26.242  25.032  28.136  1.00  0.00    -0.398 OA
HETATM   26  H   LIG     1      25.557  24.373  27.849  1.00  0.00     0.209 HD
ENDBRANCH  24  25
ENDBRANCH  23  24
BRANCH  23  27
HETATM   27  O   LIG     1      28.593  22.612  26.792  1.00  0.00    -0.391 OA
HETATM   28  H   LIG     1      28.866  22.340  27.707  1.00  0.00     0.210 HD
ENDBRANCH  23  27
ENDBRANCH  22  23
BRANCH  22  29
HETATM   29  O   LIG     1      27.090  25.071  25.277  1.00  0.00    -0.390 OA
HETATM   30  H   LIG     1      27.360  25.461  26.149  1.00  0.00     0.210 HD
ENDBRANCH  22  29
ENDBRANCH  21  22
BRANCH  21  31
HETATM   31  O   LIG     1      24.545  23.773  26.078  1.00  0.00    -0.391 OA
HETATM   32  H   LIG     1      25.064  24.355  26.693  1.00  0.00     0.210 HD
ENDBRANCH  21  31
ENDBRANCH  20  21
ENDBRANCH  12  20
TORSDOF 9
ENDMDL
MODEL 17
REMARK VINA RESULT:      -3.8     15.536     17.591
REMARK  9 active torsions:
REMARK  status: ('A' for Active; 'I' for Inactive)
REMARK    1  A    between atoms: N_12  and  C_13 
REMARK    2  A    between atoms: C_13  and  C_14 
REMARK    3  A    between atoms: C_14  and  C_16 
REMARK    4  A    between atoms: C_14  and  O_15 
REMARK    5  A    between atoms: C_16  and  C_18 
REMARK    6  A    between atoms: C_16  and  O_17 
REMARK    7  A    between atoms: C_18  and  C_20 
REMARK    8  A    between atoms: C_18  and  O_19 
REMARK    9  A    between atoms: C_20  and  O_21 
ROOT
HETATM    1  C   LIG     1      23.546  20.091  17.530  1.00  0.00     0.049 C 
HETATM    2  C   LIG     1      23.498  20.094  19.037  1.00  0.00    -0.054 A 
HETATM    3  C   LIG     1      24.123  21.136  19.744  1.00  0.00     0.039 A 
HETATM    4  C   LIG     1      24.106  21.188  21.158  1.00  0.00     0.065 A 
HETATM    5  C   LIG     1      23.418  20.150  21.847  1.00  0.00     0.085 A 
HETATM    6  N   LIG     1      23.343  20.149  23.201  1.00  0.00    -0.237 NA
HETATM    7  C   LIG     1      23.913  21.130  23.929  1.00  0.00     0.171 A 
HETATM    8  C   LIG     1      23.842  21.160  25.320  1.00  0.00     0.282 A 
HETATM    9  N   LIG     1      24.430  22.180  26.003  1.00  0.00    -0.272 N 
HETATM   10  O   LIG     1      23.235  20.250  25.948  1.00  0.00    -0.265 OA
HETATM   11  C   LIG     1      24.634  22.210  23.243  1.00  0.00     0.170 A 
HETATM   12  N   LIG     1      24.725  22.207  21.871  1.00  0.00    -0.325 N 
HETATM   13  N   LIG     1      25.190  23.191  24.003  1.00  0.00    -0.173 NA
HETATM   14  C   LIG     1      25.094  23.183  25.358  1.00  0.00     0.350 A 
HETATM   15  O   LIG     1      25.625  24.112  26.022  1.00  0.00    -0.244 OA
HETATM   16  C   LIG     1      22.801  19.113  21.144  1.00  0.00     0.041 A 
HETATM   17  C   LIG     1      22.834  19.069  19.745  1.00  0.00    -0.054 A 
HETATM   18  C   LIG     1      22.153  17.935  19.024  1.00  0.00     0.049 C 
HETATM   19  H   LIG     1      24.371  22.197  27.047  1.00  0.00     0.174 HD
ENDROOT
BRANCH  12  20
HETATM   20  C   LIG     1      25.462  23.305  21.197  1.00  0.00     0.165 C 
BRANCH  20  21
HETATM   21  C   LIG     1      26.986  23.015  21.161  1.00  0.00     0.167 C 
BRANCH  21  22
HETATM   22  C   LIG     1      27.887  24.272  21.378  1.00  0.00     0.179 C 
BRANCH  22  23
HETATM   23  C   LIG     1      28.001  24.738  22.854  1.00  0.00     0.173 C 
BRANCH  23  24
HETATM   24  C   LIG     1      29.059  25.836  23.075  1.00  0.00     0.198 C 
BRANCH  24  25
HETATM   25  O   LIG     1      29.993  25.842  22.028  1.00  0.00    -0.398 OA
HETATM   26  H   LIG     1      30.860  25.558  22.419  1.00  0.00     0.209 HD
ENDBRANCH  24  25
ENDBRANCH  23  24
BRANCH  23  27
HETATM   27  O   LIG     1      28.321  23.622  23.647  1.00  0.00    -0.391 OA
HETATM   28  H   LIG     1      27.591  23.511  24.311  1.00  0.00     0.210 HD
ENDBRANCH  23  27
ENDBRANCH  22  23
BRANCH  22  29
HETATM   29  O   LIG     1      27.484  25.330  20.542  1.00  0.00    -0.390 OA
HETATM   30  H   LIG     1      28.197  26.020  20.579  1.00  0.00     0.210 HD
ENDBRANCH  22  29
ENDBRANCH  21  22
BRANCH  21  31
HETATM   31  O   LIG     1      27.317  22.398  19.942  1.00  0.00    -0.391 OA
HETATM   32  H   LIG     1      27.733  23.088  19.361  1.00  0.00     0.210 HD
ENDBRANCH  21  31
ENDBRANCH  20  21
ENDBRANCH  12  20
TORSDOF 9
ENDMDL
MODEL 18
REMARK VINA RESULT:      -3.5     15.789     17.254
REMARK  9 active torsions:
REMARK  status: ('A' for Active; 'I' for Inactive)
REMARK    1  A    between atoms: N_12  and  C_13 
REMARK    2  A    between atoms: C_13  and  C_14 
REMARK    3  A    between atoms: C_14  and  C_16 
REMARK    4  A    between atoms: C_14  and  O_15 
REMARK    5  A    between atoms: C_16  and  C_18 
REMARK    6  A    between atoms: C_16  and  O_17 
REMARK    7  A    between atoms: C_18  and  C_20 
REMARK    8  A    between atoms: C_18  and  O_19 
REMARK    9  A    between atoms: C_20  and  O_21 
ROOT
HETATM    1  C   LIG     1      22.495  22.407  20.867  1.00  0.00     0.049 C 
HETATM    2  C   LIG     1      23.913  22.629  21.329  1.00  0.00    -0.054 A 
HETATM    3  C   LIG     1      24.172  22.798  22.700  1.00  0.00     0.039 A 
HETATM    4  C   LIG     1      25.484  23.008  23.187  1.00  0.00     0.065 A 
HETATM    5  C   LIG     1      26.544  23.028  22.237  1.00  0.00     0.085 A 
HETATM    6  N   LIG     1      27.828  23.203  22.634  1.00  0.00    -0.237 NA
HETATM    7  C   LIG     1      28.136  23.358  23.938  1.00  0.00     0.171 A 
HETATM    8  C   LIG     1      29.448  23.527  24.376  1.00  0.00     0.282 A 
HETATM    9  N   LIG     1      29.700  23.670  25.707  1.00  0.00    -0.272 N 
HETATM   10  O   LIG     1      30.399  23.545  23.550  1.00  0.00    -0.265 OA
HETATM   11  C   LIG     1      27.061  23.346  24.939  1.00  0.00     0.170 A 
HETATM   12  N   LIG     1      25.756  23.184  24.537  1.00  0.00    -0.325 N 
HETATM   13  N   LIG     1      27.403  23.494  26.246  1.00  0.00    -0.173 NA
HETATM   14  C   LIG     1      28.696  23.654  26.631  1.00  0.00     0.350 A 
HETATM   15  O   LIG     1      28.967  23.788  27.853  1.00  0.00    -0.244 OA
HETATM   16  C   LIG     1      26.285  22.864  20.874  1.00  0.00     0.041 A 
HETATM   17  C   LIG     1      24.980  22.668  20.406  1.00  0.00    -0.054 A 
HETATM   18  C   LIG     1      24.743  22.491  18.928  1.00  0.00     0.049 C 
HETATM   19  H   LIG     1      30.688  23.795  26.028  1.00  0.00     0.174 HD
ENDROOT
BRANCH  12  20
HETATM   20  C   LIG     1      24.684  23.181  25.564  1.00  0.00     0.165 C 
BRANCH  20  21
HETATM   21  C   LIG     1      24.598  21.806  26.279  1.00  0.00     0.167 C 
BRANCH  21  22
HETATM   22  C   LIG     1      23.296  21.000  25.973  1.00  0.00     0.179 C 
BRANCH  22  23
HETATM   23  C   LIG     1      22.596  20.406  27.225  1.00  0.00     0.173 C 
BRANCH  23  24
HETATM   24  C   LIG     1      21.982  19.013  26.986  1.00  0.00     0.198 C 
BRANCH  24  25
HETATM   25  O   LIG     1      21.046  19.057  25.942  1.00  0.00    -0.398 OA
HETATM   26  H   LIG     1      20.149  19.089  26.366  1.00  0.00     0.209 HD
ENDBRANCH  24  25
ENDBRANCH  23  24
BRANCH  23  27
HETATM   27  O   LIG     1      21.584  21.294  27.630  1.00  0.00    -0.391 OA
HETATM   28  H   LIG     1      22.009  21.986  28.202  1.00  0.00     0.210 HD
ENDBRANCH  23  27
ENDBRANCH  22  23
BRANCH  22  29
HETATM   29  O   LIG     1      23.535  20.006  25.007  1.00  0.00    -0.390 OA
HETATM   30  H   LIG     1      22.918  20.179  24.249  1.00  0.00     0.210 HD
ENDBRANCH  22  29
ENDBRANCH  21  22
BRANCH  21  31
HETATM   31  O   LIG     1      24.728  21.991  27.667  1.00  0.00    -0.391 OA
HETATM   32  H   LIG     1      25.017  22.929  27.817  1.00  0.00     0.210 HD
ENDBRANCH  21  31
ENDBRANCH  20  21
ENDBRANCH  12  20
TORSDOF 9
ENDMDL
MODEL 19
REMARK VINA RESULT:      -3.4     17.247     19.645
REMARK  9 active torsions:
REMARK  status: ('A' for Active; 'I' for Inactive)
REMARK    1  A    between atoms: N_12  and  C_13 
REMARK    2  A    between atoms: C_13  and  C_14 
REMARK    3  A    between atoms: C_14  and  C_16 
REMARK    4  A    between atoms: C_14  and  O_15 
REMARK    5  A    between atoms: C_16  and  C_18 
REMARK    6  A    between atoms: C_16  and  O_17 
REMARK    7  A    between atoms: C_18  and  C_20 
REMARK    8  A    between atoms: C_18  and  O_19 
REMARK    9  A    between atoms: C_20  and  O_21 
ROOT
HETATM    1  C   LIG     1      29.736  28.758  27.764  1.00  0.00     0.049 C 
HETATM    2  C   LIG     1      29.524  27.579  28.680  1.00  0.00    -0.054 A 
HETATM    3  C   LIG     1      28.931  27.782  29.938  1.00  0.00     0.039 A 
HETATM    4  C   LIG     1      28.707  26.712  30.835  1.00  0.00     0.065 A 
HETATM    5  C   LIG     1      29.094  25.408  30.415  1.00  0.00     0.085 A 
HETATM    6  N   LIG     1      28.889  24.333  31.214  1.00  0.00    -0.237 NA
HETATM    7  C   LIG     1      28.313  24.468  32.426  1.00  0.00     0.171 A 
HETATM    8  C   LIG     1      28.080  23.379  33.263  1.00  0.00     0.282 A 
HETATM    9  N   LIG     1      27.486  23.575  34.473  1.00  0.00    -0.272 N 
HETATM   10  O   LIG     1      28.414  22.216  32.906  1.00  0.00    -0.265 OA
HETATM   11  C   LIG     1      27.909  25.803  32.886  1.00  0.00     0.170 A 
HETATM   12  N   LIG     1      28.128  26.897  32.084  1.00  0.00    -0.325 N 
HETATM   13  N   LIG     1      27.321  25.906  34.108  1.00  0.00    -0.173 NA
HETATM   14  C   LIG     1      27.110  24.817  34.892  1.00  0.00     0.350 A 
HETATM   15  O   LIG     1      26.562  24.960  36.017  1.00  0.00    -0.244 OA
HETATM   16  C   LIG     1      29.687  25.207  29.166  1.00  0.00     0.041 A 
HETATM   17  C   LIG     1      29.911  26.279  28.293  1.00  0.00    -0.054 A 
HETATM   18  C   LIG     1      30.551  26.020  26.953  1.00  0.00     0.049 C 
HETATM   19  H   LIG     1      27.313  22.752  35.095  1.00  0.00     0.174 HD
ENDROOT
BRANCH  12  20
HETATM   20  C   LIG     1      27.718  28.239  32.572  1.00  0.00     0.165 C 
BRANCH  20  21
HETATM   21  C   LIG     1      28.724  28.785  33.618  1.00  0.00     0.167 C 
BRANCH  21  22
HETATM   22  C   LIG     1      28.109  29.792  34.641  1.00  0.00     0.179 C 
BRANCH  22  23
HETATM   23  C   LIG     1      26.792  29.310  35.308  1.00  0.00     0.173 C 
BRANCH  23  24
HETATM   24  C   LIG     1      26.170  30.346  36.264  1.00  0.00     0.198 C 
BRANCH  24  25
HETATM   25  O   LIG     1      25.427  31.297  35.549  1.00  0.00    -0.398 OA
HETATM   26  H   LIG     1      24.541  30.889  35.370  1.00  0.00     0.209 HD
ENDBRANCH  24  25
ENDBRANCH  23  24
BRANCH  23  27
HETATM   27  O   LIG     1      27.064  28.129  36.020  1.00  0.00    -0.391 OA
HETATM   28  H   LIG     1      26.191  27.714  36.250  1.00  0.00     0.210 HD
ENDBRANCH  23  27
ENDBRANCH  22  23
BRANCH  22  29
HETATM   29  O   LIG     1      27.946  31.063  34.060  1.00  0.00    -0.390 OA
HETATM   30  H   LIG     1      26.973  31.258  34.049  1.00  0.00     0.210 HD
ENDBRANCH  22  29
ENDBRANCH  21  22
BRANCH  21  31
HETATM   31  O   LIG     1      29.810  29.386  32.955  1.00  0.00    -0.391 OA
HETATM   32  H   LIG     1      29.886  28.959  32.061  1.00  0.00     0.210 HD
ENDBRANCH  21  31
ENDBRANCH  20  21
ENDBRANCH  12  20
TORSDOF 9
ENDMDL
MODEL 20
REMARK VINA RESULT:      -3.2     16.876     18.944
REMARK  9 active torsions:
REMARK  status: ('A' for Active; 'I' for Inactive)
REMARK    1  A    between atoms: N_12  and  C_13 
REMARK    2  A    between atoms: C_13  and  C_14 
REMARK    3  A    between atoms: C_14  and  C_16 
REMARK    4  A    between atoms: C_14  and  O_15 
REMARK    5  A    between atoms: C_16  and  C_18 
REMARK    6  A    between atoms: C_16  and  O_17 
REMARK    7  A    between atoms: C_18  and  C_20 
REMARK    8  A    between atoms: C_18  and  O_19 
REMARK    9  A    between atoms: C_20  and  O_21 
ROOT
HETATM    1  C   LIG     1      21.834  22.982  21.244  1.00  0.00     0.049 C 
HETATM    2  C   LIG     1      23.049  22.093  21.316  1.00  0.00    -0.054 A 
HETATM    3  C   LIG     1      23.645  21.840  22.564  1.00  0.00     0.039 A 
HETATM    4  C   LIG     1      24.786  21.012  22.688  1.00  0.00     0.065 A 
HETATM    5  C   LIG     1      25.308  20.427  21.500  1.00  0.00     0.085 A 
HETATM    6  N   LIG     1      26.385  19.606  21.547  1.00  0.00    -0.237 NA
HETATM    7  C   LIG     1      26.988  19.319  22.719  1.00  0.00     0.171 A 
HETATM    8  C   LIG     1      28.090  18.470  22.798  1.00  0.00     0.282 A 
HETATM    9  N   LIG     1      28.653  18.209  24.010  1.00  0.00    -0.272 N 
HETATM   10  O   LIG     1      28.564  17.940  21.757  1.00  0.00    -0.265 OA
HETATM   11  C   LIG     1      26.473  19.914  23.959  1.00  0.00     0.170 A 
HETATM   12  N   LIG     1      25.390  20.759  23.913  1.00  0.00    -0.325 N 
HETATM   13  N   LIG     1      27.096  19.598  25.126  1.00  0.00    -0.173 NA
HETATM   14  C   LIG     1      28.167  18.762  25.159  1.00  0.00     0.350 A 
HETATM   15  O   LIG     1      28.712  18.498  26.262  1.00  0.00    -0.244 OA
HETATM   16  C   LIG     1      24.718  20.682  20.260  1.00  0.00     0.041 A 
HETATM   17  C   LIG     1      23.595  21.512  20.151  1.00  0.00    -0.054 A 
HETATM   18  C   LIG     1      22.986  21.758  18.795  1.00  0.00     0.049 C 
HETATM   19  H   LIG     1      29.479  17.569  24.062  1.00  0.00     0.174 HD
ENDROOT
BRANCH  12  20
HETATM   20  C   LIG     1      24.889  21.354  25.177  1.00  0.00     0.165 C 
BRANCH  20  21
HETATM   21  C   LIG     1      25.814  22.502  25.660  1.00  0.00     0.167 C 
BRANCH  21  22
HETATM   22  C   LIG     1      25.618  22.903  27.157  1.00  0.00     0.179 C 
BRANCH  22  23
HETATM   23  C   LIG     1      26.577  22.189  28.147  1.00  0.00     0.173 C 
BRANCH  23  24
HETATM   24  C   LIG     1      26.003  20.882  28.728  1.00  0.00     0.198 C 
BRANCH  24  25
HETATM   25  O   LIG     1      26.568  19.768  28.092  1.00  0.00    -0.398 OA
HETATM   26  H   LIG     1      26.901  19.169  28.809  1.00  0.00     0.209 HD
ENDBRANCH  24  25
ENDBRANCH  23  24
BRANCH  23  27
HETATM   27  O   LIG     1      26.866  23.076  29.199  1.00  0.00    -0.391 OA
HETATM   28  H   LIG     1      26.821  22.556  30.044  1.00  0.00     0.210 HD
ENDBRANCH  23  27
ENDBRANCH  22  23
BRANCH  22  29
HETATM   29  O   LIG     1      24.276  22.743  27.549  1.00  0.00    -0.390 OA
HETATM   30  H   LIG     1      24.253  22.021  28.229  1.00  0.00     0.210 HD
ENDBRANCH  22  29
ENDBRANCH  21  22
BRANCH  21  31
HETATM   31  O   LIG     1      25.630  23.628  24.839  1.00  0.00    -0.391 OA
HETATM   32  H   LIG     1      24.659  23.835  24.829  1.00  0.00     0.210 HD
ENDBRANCH  21  31
ENDBRANCH  20  21
ENDBRANCH  12  20
TORSDOF 9
ENDMDL
