REMARK  5 active torsions:
REMARK  status: ('A' for Active; 'I' for Inactive)
REMARK    1  A    between atoms: C_2  and  N_4 
REMARK    2  A    between atoms: N_4  and  C_5 
REMARK    3  A    between atoms: C_7  and  N_8 
REMARK    4  A    between atoms: N_8  and  C_9 
REMARK    5  A    between atoms: C_12  and  S_13 
ROOT
HETATM    1  C   LIG     1      -1.039   0.971  -0.448  1.00  0.00     0.741 A 
HETATM    2  N   LIG     1      -0.603  -0.312  -0.347  1.00  0.00     0.130 NA
HETATM    3  C   LIG     1       0.637  -0.656  -0.779  1.00  0.00     0.740 A 
HETATM    4  N   LIG     1       1.445   0.292  -1.321  1.00  0.00    -0.035 NA
HETATM    5  C   LIG     1       1.017   1.575  -1.422  1.00  0.00     0.225 A 
HETATM    6  N   LIG     1      -0.222   1.913  -0.987  1.00  0.00    -0.035 NA
ENDROOT
BRANCH   1   7
HETATM    7  N   LIG     1      -2.348   1.348   0.008  1.00  0.00    -0.218 N 
HETATM    8  H   LIG     1      -2.624   2.351  -0.099  1.00  0.00     0.178 HD
BRANCH   7   9
HETATM    9  C   LIG     1      -3.331   0.440   0.614  1.00  0.00     0.091 C 
HETATM   10  C   LIG     1      -2.811  -0.147   1.931  1.00  0.00     0.032 C 
HETATM   11  C   LIG     1      -3.760  -0.654  -0.369  1.00  0.00     0.032 C 
ENDBRANCH   7   9
ENDBRANCH   1   7
BRANCH   3  12
HETATM   12  N   LIG     1       1.078  -2.015  -0.664  1.00  0.00    -0.222 N 
HETATM   13  H   LIG     1       0.402  -2.732  -0.315  1.00  0.00     0.177 HD
BRANCH  12  14
HETATM   14  C   LIG     1       2.410  -2.453  -1.074  1.00  0.00     0.134 C 
HETATM   15  C   LIG     1       3.459  -2.007  -0.061  1.00  0.00     0.027 C 
ENDBRANCH  12  14
ENDBRANCH   3  12
BRANCH   5  16
HETATM   16  S   LIG     1       2.089   2.821  -2.128  1.00  0.00    -0.093 SA
HETATM   17  C   LIG     1       2.851   3.233  -0.528  1.00  0.00     0.099 C 
ENDBRANCH   5  16
TORSDOF 5
