REMARK  8 active torsions:
REMARK  status: ('A' for Active; 'I' for Inactive)
REMARK    1  A    between atoms: C_2  and  O_3 
REMARK    2  A    between atoms: O_3  and  C_4 
REMARK    3  A    between atoms: C_4  and  C_5 
REMARK    4  A    between atoms: C_5  and  N_6 
REMARK    5  A    between atoms: N_9  and  C_12 
REMARK    6  A    between atoms: C_12  and  C_13 
REMARK    7  A    between atoms: C_13  and  C_14 
REMARK    8  A    between atoms: C_14  and  N_15 
ROOT
HETATM    1  N   LIG     1       3.804  -0.516  -0.290  1.00  0.00    -0.345 N 
HETATM    2  C   LIG     1       4.029  -0.044   1.058  1.00  0.00     0.052 A 
HETATM    3  C   LIG     1       4.823   1.101   1.261  1.00  0.00     0.032 A 
HETATM    4  S   LIG     1       5.266   2.126  -0.146  1.00  0.00    -0.086 SA
HETATM    5  C   LIG     1       5.747   0.722  -1.156  1.00  0.00     0.032 A 
HETATM    6  C   LIG     1       6.923   0.768  -1.911  1.00  0.00     0.023 A 
HETATM    7  C   LIG     1       7.253  -0.294  -2.756  1.00  0.00     0.025 A 
HETATM    8  C   LIG     1       6.414  -1.410  -2.840  1.00  0.00     0.036 A 
HETATM    9  C   LIG     1       5.247  -1.471  -2.067  1.00  0.00     0.054 A 
HETATM   10  C   LIG     1       4.902  -0.402  -1.222  1.00  0.00     0.053 A 
HETATM   11 CL   LIG     1       6.842  -2.751  -3.886  1.00  0.00    -0.084 Cl
HETATM   12  C   LIG     1       5.201   1.479   2.553  1.00  0.00     0.021 A 
HETATM   13  C   LIG     1       4.762   0.739   3.654  1.00  0.00     0.002 A 
HETATM   14  C   LIG     1       3.950  -0.383   3.464  1.00  0.00     0.002 A 
HETATM   15  C   LIG     1       3.589  -0.780   2.172  1.00  0.00     0.031 A 
ENDROOT
BRANCH   1  16
HETATM   16  C   LIG     1       2.526  -1.125  -0.693  1.00  0.00     0.131 C 
BRANCH  16  17
HETATM   17  C   LIG     1       1.359  -0.160  -0.442  1.00  0.00     0.050 C 
BRANCH  17  18
HETATM   18  C   LIG     1       0.028  -0.767  -0.908  1.00  0.00     0.274 C 
BRANCH  18  19
HETATM   19  N   LIG     1      -1.093   0.178  -0.699  1.00  0.00     0.091 N 
HETATM   20  C   LIG     1      -2.288  -0.212  -1.488  1.00  0.00     0.302 C 
HETATM   21  C   LIG     1      -3.224  -1.147  -0.704  1.00  0.00     0.302 C 
HETATM   22  N   LIG     1      -3.636  -0.578   0.602  1.00  0.00     0.093 N 
HETATM   23  C   LIG     1      -2.866   0.607   1.029  1.00  0.00     0.302 C 
HETATM   24  C   LIG     1      -1.376   0.388   0.747  1.00  0.00     0.302 C 
BRANCH  22  25
HETATM   25  C   LIG     1      -5.098  -0.427   0.765  1.00  0.00     0.299 C 
BRANCH  25  26
HETATM   26  C   LIG     1      -5.713   0.670  -0.118  1.00  0.00     0.209 C 
BRANCH  26  27
HETATM   27  O   LIG     1      -7.131   0.541  -0.106  1.00  0.00    -0.320 OA
BRANCH  27  28
HETATM   28  C   LIG     1      -7.973   1.404  -0.815  1.00  0.00     0.254 C 
HETATM   29  C   LIG     1      -9.449   1.202  -0.763  1.00  0.00     0.126 C 
HETATM   30  O   LIG     1      -7.497   2.351  -1.498  1.00  0.00    -0.266 OA
ENDBRANCH  27  28
ENDBRANCH  26  27
ENDBRANCH  25  26
ENDBRANCH  22  25
ENDBRANCH  18  19
ENDBRANCH  17  18
ENDBRANCH  16  17
ENDBRANCH   1  16
TORSDOF 8
