MODEL 1
REMARK VINA RESULT:      -9.5      0.000      0.000
REMARK  8 active torsions:
REMARK  status: ('A' for Active; 'I' for Inactive)
REMARK    1  A    between atoms: C_2  and  O_3 
REMARK    2  A    between atoms: O_3  and  C_4 
REMARK    3  A    between atoms: C_4  and  C_5 
REMARK    4  A    between atoms: C_5  and  N_6 
REMARK    5  A    between atoms: N_9  and  C_12 
REMARK    6  A    between atoms: C_12  and  C_13 
REMARK    7  A    between atoms: C_13  and  C_14 
REMARK    8  A    between atoms: C_14  and  N_15 
ROOT
HETATM    1  N   LIG     1      16.736  36.464  22.938  1.00  0.00    -0.345 N 
HETATM    2  C   LIG     1      17.199  36.224  24.286  1.00  0.00     0.052 A 
HETATM    3  C   LIG     1      17.615  37.315  25.074  1.00  0.00     0.032 A 
HETATM    4  S   LIG     1      17.265  38.987  24.517  1.00  0.00    -0.086 SA
HETATM    5  C   LIG     1      17.833  38.666  22.845  1.00  0.00     0.032 A 
HETATM    6  C   LIG     1      18.648  39.593  22.188  1.00  0.00     0.023 A 
HETATM    7  C   LIG     1      19.022  39.376  20.860  1.00  0.00     0.025 A 
HETATM    8  C   LIG     1      18.592  38.227  20.188  1.00  0.00     0.036 A 
HETATM    9  C   LIG     1      17.796  37.284  20.850  1.00  0.00     0.054 A 
HETATM   10  C   LIG     1      17.406  37.499  22.183  1.00  0.00     0.053 A 
HETATM   11 CL   LIG     1      19.082  37.948  18.527  1.00  0.00    -0.084 Cl
HETATM   12  C   LIG     1      18.228  37.100  26.312  1.00  0.00     0.021 A 
HETATM   13  C   LIG     1      18.399  35.798  26.790  1.00  0.00     0.002 A 
HETATM   14  C   LIG     1      17.963  34.710  26.028  1.00  0.00     0.002 A 
HETATM   15  C   LIG     1      17.371  34.918  24.777  1.00  0.00     0.031 A 
ENDROOT
BRANCH   1  16
HETATM   16  C   LIG     1      15.655  35.665  22.337  1.00  0.00     0.131 C 
BRANCH  16  17
HETATM   17  C   LIG     1      16.229  34.536  21.471  1.00  0.00     0.050 C 
BRANCH  17  18
HETATM   18  C   LIG     1      15.131  33.871  20.628  1.00  0.00     0.274 C 
BRANCH  18  19
HETATM   19  N   LIG     1      15.683  33.322  19.368  1.00  0.00     0.091 N 
HETATM   20  C   LIG     1      15.502  31.851  19.290  1.00  0.00     0.302 C 
HETATM   21  C   LIG     1      14.175  31.462  18.617  1.00  0.00     0.302 C 
HETATM   22  N   LIG     1      14.017  32.069  17.273  1.00  0.00     0.093 N 
HETATM   23  C   LIG     1      14.989  33.135  16.960  1.00  0.00     0.302 C 
HETATM   24  C   LIG     1      15.167  34.050  18.176  1.00  0.00     0.302 C 
BRANCH  22  25
HETATM   25  C   LIG     1      13.837  31.089  16.181  1.00  0.00     0.299 C 
BRANCH  25  26
HETATM   26  C   LIG     1      14.979  31.086  15.153  1.00  0.00     0.209 C 
BRANCH  26  27
HETATM   27  O   LIG     1      14.546  30.416  13.974  1.00  0.00    -0.320 OA
BRANCH  27  28
HETATM   28  C   LIG     1      14.270  29.045  13.944  1.00  0.00     0.254 C 
HETATM   29  C   LIG     1      15.384  28.072  13.754  1.00  0.00     0.126 C 
HETATM   30  O   LIG     1      13.089  28.623  14.075  1.00  0.00    -0.266 OA
ENDBRANCH  27  28
ENDBRANCH  26  27
ENDBRANCH  25  26
ENDBRANCH  22  25
ENDBRANCH  18  19
ENDBRANCH  17  18
ENDBRANCH  16  17
ENDBRANCH   1  16
TORSDOF 8
ENDMDL
MODEL 2
REMARK VINA RESULT:      -8.7      1.809      2.512
REMARK  8 active torsions:
REMARK  status: ('A' for Active; 'I' for Inactive)
REMARK    1  A    between atoms: C_2  and  O_3 
REMARK    2  A    between atoms: O_3  and  C_4 
REMARK    3  A    between atoms: C_4  and  C_5 
REMARK    4  A    between atoms: C_5  and  N_6 
REMARK    5  A    between atoms: N_9  and  C_12 
REMARK    6  A    between atoms: C_12  and  C_13 
REMARK    7  A    between atoms: C_13  and  C_14 
REMARK    8  A    between atoms: C_14  and  N_15 
ROOT
HETATM    1  N   LIG     1      16.713  36.457  22.710  1.00  0.00    -0.345 N 
HETATM    2  C   LIG     1      17.122  36.200  24.073  1.00  0.00     0.052 A 
HETATM    3  C   LIG     1      17.483  37.283  24.897  1.00  0.00     0.032 A 
HETATM    4  S   LIG     1      17.124  38.958  24.357  1.00  0.00    -0.086 SA
HETATM    5  C   LIG     1      17.769  38.680  22.705  1.00  0.00     0.032 A 
HETATM    6  C   LIG     1      18.592  39.635  22.101  1.00  0.00     0.023 A 
HETATM    7  C   LIG     1      19.027  39.452  20.787  1.00  0.00     0.025 A 
HETATM    8  C   LIG     1      18.649  38.308  20.076  1.00  0.00     0.036 A 
HETATM    9  C   LIG     1      17.844  37.337  20.686  1.00  0.00     0.054 A 
HETATM   10  C   LIG     1      17.393  37.518  22.005  1.00  0.00     0.053 A 
HETATM   11 CL   LIG     1      19.214  38.070  18.433  1.00  0.00    -0.084 Cl
HETATM   12  C   LIG     1      18.046  37.055  26.156  1.00  0.00     0.021 A 
HETATM   13  C   LIG     1      18.223  35.748  26.617  1.00  0.00     0.002 A 
HETATM   14  C   LIG     1      17.841  34.667  25.817  1.00  0.00     0.002 A 
HETATM   15  C   LIG     1      17.300  34.888  24.546  1.00  0.00     0.031 A 
ENDROOT
BRANCH   1  16
HETATM   16  C   LIG     1      15.674  35.650  22.049  1.00  0.00     0.131 C 
BRANCH  16  17
HETATM   17  C   LIG     1      16.145  35.184  20.664  1.00  0.00     0.050 C 
BRANCH  17  18
HETATM   18  C   LIG     1      15.943  33.672  20.490  1.00  0.00     0.274 C 
BRANCH  18  19
HETATM   19  N   LIG     1      14.881  33.385  19.498  1.00  0.00     0.091 N 
HETATM   20  C   LIG     1      14.954  34.311  18.341  1.00  0.00     0.302 C 
HETATM   21  C   LIG     1      15.845  33.764  17.212  1.00  0.00     0.302 C 
HETATM   22  N   LIG     1      15.431  32.413  16.763  1.00  0.00     0.093 N 
HETATM   23  C   LIG     1      14.461  31.738  17.648  1.00  0.00     0.302 C 
HETATM   24  C   LIG     1      14.860  31.948  19.112  1.00  0.00     0.302 C 
BRANCH  22  25
HETATM   25  C   LIG     1      15.084  32.330  15.328  1.00  0.00     0.299 C 
BRANCH  25  26
HETATM   26  C   LIG     1      16.278  32.007  14.416  1.00  0.00     0.209 C 
BRANCH  26  27
HETATM   27  O   LIG     1      16.516  33.111  13.548  1.00  0.00    -0.320 OA
BRANCH  27  28
HETATM   28  C   LIG     1      17.595  33.984  13.717  1.00  0.00     0.254 C 
HETATM   29  C   LIG     1      18.917  33.650  13.114  1.00  0.00     0.126 C 
HETATM   30  O   LIG     1      17.462  35.052  14.374  1.00  0.00    -0.266 OA
ENDBRANCH  27  28
ENDBRANCH  26  27
ENDBRANCH  25  26
ENDBRANCH  22  25
ENDBRANCH  18  19
ENDBRANCH  17  18
ENDBRANCH  16  17
ENDBRANCH   1  16
TORSDOF 8
ENDMDL
