REMARK  5 active torsions:
REMARK  status: ('A' for Active; 'I' for Inactive)
REMARK    1  A    between atoms: C_3  and  C_4 
REMARK    2  A    between atoms: C_3  and  C_11 
REMARK    3  A    between atoms: C_7  and  O_8 
REMARK    4  A    between atoms: C_11  and  C_12 
REMARK    5  A    between atoms: C_15  and  O_16 
ROOT
HETATM    1  C   LIG     1      -2.355  -3.110  -0.635  1.00  0.00     0.037 C 
HETATM    2  C   LIG     1      -1.101  -2.466  -1.149  1.00  0.00    -0.018 C 
HETATM    3  C   LIG     1      -0.683  -1.241  -0.769  1.00  0.00    -0.019 C 
ENDROOT
BRANCH   3   4
HETATM    4  C   LIG     1      -1.402  -0.475   0.276  1.00  0.00    -0.025 A 
HETATM    5  C   LIG     1      -1.414  -0.919   1.608  1.00  0.00     0.015 A 
HETATM    6  C   LIG     1      -2.053  -0.164   2.595  1.00  0.00     0.037 A 
HETATM    7  C   LIG     1      -2.673   1.046   2.265  1.00  0.00     0.065 A 
HETATM    8  C   LIG     1      -2.648   1.501   0.940  1.00  0.00     0.037 A 
HETATM    9  C   LIG     1      -2.010   0.747  -0.049  1.00  0.00     0.015 A 
BRANCH   7  10
HETATM   10  O   LIG     1      -3.305   1.789   3.260  1.00  0.00    -0.361 OA
HETATM   11  H   LIG     1      -3.761   2.669   3.054  1.00  0.00     0.217 HD
ENDBRANCH   7  10
ENDBRANCH   3   4
BRANCH   3  12
HETATM   12  C   LIG     1       0.532  -0.623  -1.371  1.00  0.00    -0.019 C 
HETATM   13  C   LIG     1       0.817  -0.780  -2.680  1.00  0.00    -0.018 C 
HETATM   14  C   LIG     1       2.062  -0.248  -3.327  1.00  0.00     0.037 C 
BRANCH  12  15
HETATM   15  C   LIG     1       1.401   0.191  -0.489  1.00  0.00    -0.025 A 
HETATM   16  C   LIG     1       1.510   1.579  -0.674  1.00  0.00     0.015 A 
HETATM   17  C   LIG     1       2.294   2.345   0.194  1.00  0.00     0.037 A 
HETATM   18  C   LIG     1       2.966   1.733   1.261  1.00  0.00     0.065 A 
HETATM   19  C   LIG     1       2.846   0.354   1.457  1.00  0.00     0.037 A 
HETATM   20  C   LIG     1       2.063  -0.415   0.590  1.00  0.00     0.015 A 
BRANCH  18  21
HETATM   21  O   LIG     1       3.749   2.487   2.132  1.00  0.00    -0.361 OA
HETATM   22  H   LIG     1       3.855   3.488   2.018  1.00  0.00     0.217 HD
ENDBRANCH  18  21
ENDBRANCH  12  15
ENDBRANCH   3  12
TORSDOF 5
