MODEL 1
REMARK VINA RESULT:      -7.1      0.000      0.000
REMARK  5 active torsions:
REMARK  status: ('A' for Active; 'I' for Inactive)
REMARK    1  A    between atoms: C_3  and  C_4 
REMARK    2  A    between atoms: C_3  and  C_11 
REMARK    3  A    between atoms: C_7  and  O_8 
REMARK    4  A    between atoms: C_11  and  C_12 
REMARK    5  A    between atoms: C_15  and  O_16 
ROOT
HETATM    1  C   LIG     1      18.530  36.971  20.043  1.00  0.00     0.037 C 
HETATM    2  C   LIG     1      17.410  35.983  19.902  1.00  0.00    -0.018 C 
HETATM    3  C   LIG     1      16.677  35.534  20.942  1.00  0.00    -0.019 C 
ENDROOT
BRANCH   3   4
HETATM    4  C   LIG     1      16.872  36.074  22.308  1.00  0.00    -0.025 A 
HETATM    5  C   LIG     1      16.611  37.424  22.588  1.00  0.00     0.015 A 
HETATM    6  C   LIG     1      16.751  37.912  23.890  1.00  0.00     0.037 A 
HETATM    7  C   LIG     1      17.140  37.055  24.925  1.00  0.00     0.065 A 
HETATM    8  C   LIG     1      17.385  35.702  24.653  1.00  0.00     0.037 A 
HETATM    9  C   LIG     1      17.246  35.212  23.351  1.00  0.00     0.015 A 
BRANCH   7  10
HETATM   10  O   LIG     1      17.274  37.554  26.219  1.00  0.00    -0.361 OA
HETATM   11  H   LIG     1      16.510  37.520  26.881  1.00  0.00     0.217 HD
ENDBRANCH   7  10
ENDBRANCH   3   4
BRANCH   3  12
HETATM   12  C   LIG     1      15.626  34.495  20.749  1.00  0.00    -0.019 C 
HETATM   13  C   LIG     1      14.804  34.140  21.758  1.00  0.00    -0.018 C 
HETATM   14  C   LIG     1      13.780  33.049  21.649  1.00  0.00     0.037 C 
BRANCH  12  15
HETATM   15  C   LIG     1      15.498  33.885  19.405  1.00  0.00    -0.025 A 
HETATM   16  C   LIG     1      15.559  32.491  19.242  1.00  0.00     0.015 A 
HETATM   17  C   LIG     1      15.387  31.923  17.976  1.00  0.00     0.037 A 
HETATM   18  C   LIG     1      15.141  32.740  16.865  1.00  0.00     0.065 A 
HETATM   19  C   LIG     1      15.064  34.127  17.027  1.00  0.00     0.037 A 
HETATM   20  C   LIG     1      15.236  34.698  18.292  1.00  0.00     0.015 A 
BRANCH  18  21
HETATM   21  O   LIG     1      14.968  32.184  15.599  1.00  0.00    -0.361 OA
HETATM   22  H   LIG     1      14.605  32.728  14.826  1.00  0.00     0.217 HD
ENDBRANCH  18  21
ENDBRANCH  12  15
ENDBRANCH   3  12
TORSDOF 5
ENDMDL
MODEL 2
REMARK VINA RESULT:      -6.5     14.109     15.819
REMARK  5 active torsions:
REMARK  status: ('A' for Active; 'I' for Inactive)
REMARK    1  A    between atoms: C_3  and  C_4 
REMARK    2  A    between atoms: C_3  and  C_11 
REMARK    3  A    between atoms: C_7  and  O_8 
REMARK    4  A    between atoms: C_11  and  C_12 
REMARK    5  A    between atoms: C_15  and  O_16 
ROOT
HETATM    1  C   LIG     1      27.947  21.034  20.108  1.00  0.00     0.037 C 
HETATM    2  C   LIG     1      26.452  20.987  20.234  1.00  0.00    -0.018 C 
HETATM    3  C   LIG     1      25.663  22.077  20.147  1.00  0.00    -0.019 C 
ENDROOT
BRANCH   3   4
HETATM    4  C   LIG     1      26.226  23.408  19.819  1.00  0.00    -0.025 A 
HETATM    5  C   LIG     1      26.053  23.962  18.540  1.00  0.00     0.015 A 
HETATM    6  C   LIG     1      26.545  25.238  18.255  1.00  0.00     0.037 A 
HETATM    7  C   LIG     1      27.201  25.978  19.245  1.00  0.00     0.065 A 
HETATM    8  C   LIG     1      27.360  25.435  20.527  1.00  0.00     0.037 A 
HETATM    9  C   LIG     1      26.869  24.158  20.814  1.00  0.00     0.015 A 
BRANCH   7  10
HETATM   10  O   LIG     1      27.685  27.250  18.947  1.00  0.00    -0.361 OA
HETATM   11  H   LIG     1      27.237  27.837  18.255  1.00  0.00     0.217 HD
ENDBRANCH   7  10
ENDBRANCH   3   4
BRANCH   3  12
HETATM   12  C   LIG     1      24.190  21.978  20.356  1.00  0.00    -0.019 C 
HETATM   13  C   LIG     1      23.548  22.816  21.195  1.00  0.00    -0.018 C 
HETATM   14  C   LIG     1      22.083  22.717  21.505  1.00  0.00     0.037 C 
BRANCH  12  15
HETATM   15  C   LIG     1      23.453  20.946  19.590  1.00  0.00    -0.025 A 
HETATM   16  C   LIG     1      23.086  21.172  18.253  1.00  0.00     0.015 A 
HETATM   17  C   LIG     1      22.434  20.172  17.524  1.00  0.00     0.037 A 
HETATM   18  C   LIG     1      22.154  18.935  18.120  1.00  0.00     0.065 A 
HETATM   19  C   LIG     1      22.533  18.702  19.446  1.00  0.00     0.037 A 
HETATM   20  C   LIG     1      23.185  19.700  20.178  1.00  0.00     0.015 A 
BRANCH  18  21
HETATM   21  O   LIG     1      21.505  17.933  17.403  1.00  0.00    -0.361 OA
HETATM   22  H   LIG     1      21.971  17.064  17.167  1.00  0.00     0.217 HD
ENDBRANCH  18  21
ENDBRANCH  12  15
ENDBRANCH   3  12
TORSDOF 5
ENDMDL
MODEL 3
REMARK VINA RESULT:      -6.5     14.110     16.654
REMARK  5 active torsions:
REMARK  status: ('A' for Active; 'I' for Inactive)
REMARK    1  A    between atoms: C_3  and  C_4 
REMARK    2  A    between atoms: C_3  and  C_11 
REMARK    3  A    between atoms: C_7  and  O_8 
REMARK    4  A    between atoms: C_11  and  C_12 
REMARK    5  A    between atoms: C_15  and  O_16 
ROOT
HETATM    1  C   LIG     1      22.055  22.714  21.522  1.00  0.00     0.037 C 
HETATM    2  C   LIG     1      23.524  22.810  21.231  1.00  0.00    -0.018 C 
HETATM    3  C   LIG     1      24.174  21.973  20.397  1.00  0.00    -0.019 C 
ENDROOT
BRANCH   3   4
HETATM    4  C   LIG     1      23.444  20.942  19.622  1.00  0.00    -0.025 A 
HETATM    5  C   LIG     1      23.079  21.175  18.287  1.00  0.00     0.015 A 
HETATM    6  C   LIG     1      22.435  20.177  17.550  1.00  0.00     0.037 A 
HETATM    7  C   LIG     1      22.162  18.935  18.134  1.00  0.00     0.065 A 
HETATM    8  C   LIG     1      22.541  18.693  19.461  1.00  0.00     0.037 A 
HETATM    9  C   LIG     1      23.185  19.689  20.200  1.00  0.00     0.015 A 
BRANCH   7  10
HETATM   10  O   LIG     1      21.520  17.950  17.386  1.00  0.00    -0.361 OA
HETATM   11  H   LIG     1      20.580  17.647  17.607  1.00  0.00     0.217 HD
ENDBRANCH   7  10
ENDBRANCH   3   4
BRANCH   3  12
HETATM   12  C   LIG     1      25.648  22.071  20.206  1.00  0.00    -0.019 C 
HETATM   13  C   LIG     1      26.440  20.986  20.327  1.00  0.00    -0.018 C 
HETATM   14  C   LIG     1      27.936  21.035  20.222  1.00  0.00     0.037 C 
BRANCH  12  15
HETATM   15  C   LIG     1      26.211  23.395  19.851  1.00  0.00    -0.025 A 
HETATM   16  C   LIG     1      26.034  23.928  18.564  1.00  0.00     0.015 A 
HETATM   17  C   LIG     1      26.526  25.199  18.255  1.00  0.00     0.037 A 
HETATM   18  C   LIG     1      27.190  25.954  19.232  1.00  0.00     0.065 A 
HETATM   19  C   LIG     1      27.354  25.433  20.518  1.00  0.00     0.037 A 
HETATM   20  C   LIG     1      26.863  24.161  20.831  1.00  0.00     0.015 A 
BRANCH  18  21
HETATM   21  O   LIG     1      27.684  27.222  18.934  1.00  0.00    -0.361 OA
HETATM   22  H   LIG     1      27.210  28.062  19.243  1.00  0.00     0.217 HD
ENDBRANCH  18  21
ENDBRANCH  12  15
ENDBRANCH   3  12
TORSDOF 5
ENDMDL
MODEL 4
REMARK VINA RESULT:      -6.3     14.153     15.999
REMARK  5 active torsions:
REMARK  status: ('A' for Active; 'I' for Inactive)
REMARK    1  A    between atoms: C_3  and  C_4 
REMARK    2  A    between atoms: C_3  and  C_11 
REMARK    3  A    between atoms: C_7  and  O_8 
REMARK    4  A    between atoms: C_11  and  C_12 
REMARK    5  A    between atoms: C_15  and  O_16 
ROOT
HETATM    1  C   LIG     1      27.523  23.151  22.673  1.00  0.00     0.037 C 
HETATM    2  C   LIG     1      26.106  22.760  22.375  1.00  0.00    -0.018 C 
HETATM    3  C   LIG     1      25.515  22.955  21.178  1.00  0.00    -0.019 C 
ENDROOT
BRANCH   3   4
HETATM    4  C   LIG     1      26.275  23.493  20.026  1.00  0.00    -0.025 A 
HETATM    5  C   LIG     1      27.020  22.638  19.197  1.00  0.00     0.015 A 
HETATM    6  C   LIG     1      27.694  23.148  18.084  1.00  0.00     0.037 A 
HETATM    7  C   LIG     1      27.619  24.512  17.781  1.00  0.00     0.065 A 
HETATM    8  C   LIG     1      26.863  25.365  18.595  1.00  0.00     0.037 A 
HETATM    9  C   LIG     1      26.189  24.857  19.709  1.00  0.00     0.015 A 
BRANCH   7  10
HETATM   10  O   LIG     1      28.295  25.007  16.667  1.00  0.00    -0.361 OA
HETATM   11  H   LIG     1      28.751  24.389  16.008  1.00  0.00     0.217 HD
ENDBRANCH   7  10
ENDBRANCH   3   4
BRANCH   3  12
HETATM   12  C   LIG     1      24.080  22.613  20.965  1.00  0.00    -0.019 C 
HETATM   13  C   LIG     1      23.099  23.333  21.547  1.00  0.00    -0.018 C 
HETATM   14  C   LIG     1      21.642  22.993  21.433  1.00  0.00     0.037 C 
BRANCH  12  15
HETATM   15  C   LIG     1      23.768  21.474  20.071  1.00  0.00    -0.025 A 
HETATM   16  C   LIG     1      23.403  21.692  18.732  1.00  0.00     0.015 A 
HETATM   17  C   LIG     1      23.158  20.608  17.884  1.00  0.00     0.037 A 
HETATM   18  C   LIG     1      23.287  19.297  18.362  1.00  0.00     0.065 A 
HETATM   19  C   LIG     1      23.666  19.077  19.689  1.00  0.00     0.037 A 
HETATM   20  C   LIG     1      23.911  20.159  20.540  1.00  0.00     0.015 A 
BRANCH  18  21
HETATM   21  O   LIG     1      23.046  18.210  17.525  1.00  0.00    -0.361 OA
HETATM   22  H   LIG     1      23.469  18.144  16.606  1.00  0.00     0.217 HD
ENDBRANCH  18  21
ENDBRANCH  12  15
ENDBRANCH   3  12
TORSDOF 5
ENDMDL
MODEL 5
REMARK VINA RESULT:      -6.2     14.507     16.765
REMARK  5 active torsions:
REMARK  status: ('A' for Active; 'I' for Inactive)
REMARK    1  A    between atoms: C_3  and  C_4 
REMARK    2  A    between atoms: C_3  and  C_11 
REMARK    3  A    between atoms: C_7  and  O_8 
REMARK    4  A    between atoms: C_11  and  C_12 
REMARK    5  A    between atoms: C_15  and  O_16 
ROOT
HETATM    1  C   LIG     1      26.227  25.512  19.343  1.00  0.00     0.037 C 
HETATM    2  C   LIG     1      26.846  24.704  20.445  1.00  0.00    -0.018 C 
HETATM    3  C   LIG     1      26.447  23.456  20.768  1.00  0.00    -0.019 C 
ENDROOT
BRANCH   3   4
HETATM    4  C   LIG     1      25.413  22.752  19.975  1.00  0.00    -0.025 A 
HETATM    5  C   LIG     1      25.737  22.154  18.746  1.00  0.00     0.015 A 
HETATM    6  C   LIG     1      24.766  21.450  18.029  1.00  0.00     0.037 A 
HETATM    7  C   LIG     1      23.468  21.324  18.538  1.00  0.00     0.065 A 
HETATM    8  C   LIG     1      23.146  21.904  19.772  1.00  0.00     0.037 A 
HETATM    9  C   LIG     1      24.116  22.610  20.490  1.00  0.00     0.015 A 
BRANCH   7  10
HETATM   10  O   LIG     1      22.511  20.617  17.813  1.00  0.00    -0.361 OA
HETATM   11  H   LIG     1      22.763  20.064  17.003  1.00  0.00     0.217 HD
ENDBRANCH   7  10
ENDBRANCH   3   4
BRANCH   3  12
HETATM   12  C   LIG     1      27.051  22.732  21.922  1.00  0.00    -0.019 C 
HETATM   13  C   LIG     1      27.862  21.672  21.731  1.00  0.00    -0.018 C 
HETATM   14  C   LIG     1      28.438  20.856  22.851  1.00  0.00     0.037 C 
BRANCH  12  15
HETATM   15  C   LIG     1      26.750  23.232  23.284  1.00  0.00    -0.025 A 
HETATM   16  C   LIG     1      27.603  24.154  23.913  1.00  0.00     0.015 A 
HETATM   17  C   LIG     1      27.285  24.657  25.178  1.00  0.00     0.037 A 
HETATM   18  C   LIG     1      26.106  24.253  25.820  1.00  0.00     0.065 A 
HETATM   19  C   LIG     1      25.247  23.349  25.189  1.00  0.00     0.037 A 
HETATM   20  C   LIG     1      25.563  22.843  23.924  1.00  0.00     0.015 A 
BRANCH  18  21
HETATM   21  O   LIG     1      25.779  24.749  27.080  1.00  0.00    -0.361 OA
HETATM   22  H   LIG     1      26.407  24.649  27.868  1.00  0.00     0.217 HD
ENDBRANCH  18  21
ENDBRANCH  12  15
ENDBRANCH   3  12
TORSDOF 5
ENDMDL
MODEL 6
REMARK VINA RESULT:      -6.2     14.504     15.660
REMARK  5 active torsions:
REMARK  status: ('A' for Active; 'I' for Inactive)
REMARK    1  A    between atoms: C_3  and  C_4 
REMARK    2  A    between atoms: C_3  and  C_11 
REMARK    3  A    between atoms: C_7  and  O_8 
REMARK    4  A    between atoms: C_11  and  C_12 
REMARK    5  A    between atoms: C_15  and  O_16 
ROOT
HETATM    1  C   LIG     1      28.284  20.723  22.881  1.00  0.00     0.037 C 
HETATM    2  C   LIG     1      27.740  21.549  21.753  1.00  0.00    -0.018 C 
HETATM    3  C   LIG     1      26.963  22.637  21.933  1.00  0.00    -0.019 C 
ENDROOT
BRANCH   3   4
HETATM    4  C   LIG     1      26.668  23.153  23.290  1.00  0.00    -0.025 A 
HETATM    5  C   LIG     1      27.543  24.055  23.918  1.00  0.00     0.015 A 
HETATM    6  C   LIG     1      27.232  24.574  25.177  1.00  0.00     0.037 A 
HETATM    7  C   LIG     1      26.041  24.210  25.815  1.00  0.00     0.065 A 
HETATM    8  C   LIG     1      25.158  23.325  25.184  1.00  0.00     0.037 A 
HETATM    9  C   LIG     1      25.467  22.803  23.924  1.00  0.00     0.015 A 
BRANCH   7  10
HETATM   10  O   LIG     1      25.744  24.738  27.070  1.00  0.00    -0.361 OA
HETATM   11  H   LIG     1      25.606  24.140  27.875  1.00  0.00     0.217 HD
ENDBRANCH   7  10
ENDBRANCH   3   4
BRANCH   3  12
HETATM   12  C   LIG     1      26.390  23.373  20.770  1.00  0.00    -0.019 C 
HETATM   13  C   LIG     1      26.815  24.614  20.455  1.00  0.00    -0.018 C 
HETATM   14  C   LIG     1      26.225  25.435  19.346  1.00  0.00     0.037 C 
BRANCH  12  15
HETATM   15  C   LIG     1      25.360  22.685  19.958  1.00  0.00    -0.025 A 
HETATM   16  C   LIG     1      25.694  22.091  18.730  1.00  0.00     0.015 A 
HETATM   17  C   LIG     1      24.725  21.402  17.994  1.00  0.00     0.037 A 
HETATM   18  C   LIG     1      23.417  21.290  18.485  1.00  0.00     0.065 A 
HETATM   19  C   LIG     1      23.085  21.867  19.715  1.00  0.00     0.037 A 
HETATM   20  C   LIG     1      24.052  22.557  20.452  1.00  0.00     0.015 A 
BRANCH  18  21
HETATM   21  O   LIG     1      22.444  20.606  17.761  1.00  0.00    -0.361 OA
HETATM   22  H   LIG     1      22.121  19.688  18.043  1.00  0.00     0.217 HD
ENDBRANCH  18  21
ENDBRANCH  12  15
ENDBRANCH   3  12
TORSDOF 5
ENDMDL
MODEL 7
REMARK VINA RESULT:      -6.2      3.223      6.819
REMARK  5 active torsions:
REMARK  status: ('A' for Active; 'I' for Inactive)
REMARK    1  A    between atoms: C_3  and  C_4 
REMARK    2  A    between atoms: C_3  and  C_11 
REMARK    3  A    between atoms: C_7  and  O_8 
REMARK    4  A    between atoms: C_11  and  C_12 
REMARK    5  A    between atoms: C_15  and  O_16 
ROOT
HETATM    1  C   LIG     1      16.034  35.554  20.355  1.00  0.00     0.037 C 
HETATM    2  C   LIG     1      16.117  36.182  21.716  1.00  0.00    -0.018 C 
HETATM    3  C   LIG     1      17.013  37.137  22.042  1.00  0.00    -0.019 C 
ENDROOT
BRANCH   3   4
HETATM    4  C   LIG     1      17.930  37.707  21.027  1.00  0.00    -0.025 A 
HETATM    5  C   LIG     1      18.160  39.091  20.968  1.00  0.00     0.015 A 
HETATM    6  C   LIG     1      19.064  39.615  20.040  1.00  0.00     0.037 A 
HETATM    7  C   LIG     1      19.756  38.762  19.173  1.00  0.00     0.065 A 
HETATM    8  C   LIG     1      19.542  37.379  19.241  1.00  0.00     0.037 A 
HETATM    9  C   LIG     1      18.638  36.853  20.168  1.00  0.00     0.015 A 
BRANCH   7  10
HETATM   10  O   LIG     1      20.656  39.298  18.254  1.00  0.00    -0.361 OA
HETATM   11  H   LIG     1      21.469  38.780  17.946  1.00  0.00     0.217 HD
ENDBRANCH   7  10
ENDBRANCH   3   4
BRANCH   3  12
HETATM   12  C   LIG     1      17.096  37.670  23.431  1.00  0.00    -0.019 C 
HETATM   13  C   LIG     1      16.750  38.943  23.710  1.00  0.00    -0.018 C 
HETATM   14  C   LIG     1      16.885  39.559  25.072  1.00  0.00     0.037 C 
BRANCH  12  15
HETATM   15  C   LIG     1      17.545  36.745  24.498  1.00  0.00    -0.025 A 
HETATM   16  C   LIG     1      17.126  35.405  24.508  1.00  0.00     0.015 A 
HETATM   17  C   LIG     1      17.595  34.529  25.492  1.00  0.00     0.037 A 
HETATM   18  C   LIG     1      18.495  34.981  26.466  1.00  0.00     0.065 A 
HETATM   19  C   LIG     1      18.926  36.310  26.449  1.00  0.00     0.037 A 
HETATM   20  C   LIG     1      18.459  37.189  25.467  1.00  0.00     0.015 A 
BRANCH  18  21
HETATM   21  O   LIG     1      18.969  34.116  27.450  1.00  0.00    -0.361 OA
HETATM   22  H   LIG     1      19.960  34.003  27.625  1.00  0.00     0.217 HD
ENDBRANCH  18  21
ENDBRANCH  12  15
ENDBRANCH   3  12
TORSDOF 5
ENDMDL
MODEL 8
REMARK VINA RESULT:      -6.1     14.392     16.092
REMARK  5 active torsions:
REMARK  status: ('A' for Active; 'I' for Inactive)
REMARK    1  A    between atoms: C_3  and  C_4 
REMARK    2  A    between atoms: C_3  and  C_11 
REMARK    3  A    between atoms: C_7  and  O_8 
REMARK    4  A    between atoms: C_11  and  C_12 
REMARK    5  A    between atoms: C_15  and  O_16 
ROOT
HETATM    1  C   LIG     1      27.353  20.721  19.737  1.00  0.00     0.037 C 
HETATM    2  C   LIG     1      26.010  20.896  20.381  1.00  0.00    -0.018 C 
HETATM    3  C   LIG     1      25.447  22.099  20.614  1.00  0.00    -0.019 C 
ENDROOT
BRANCH   3   4
HETATM    4  C   LIG     1      26.091  23.351  20.151  1.00  0.00    -0.025 A 
HETATM    5  C   LIG     1      25.827  23.861  18.870  1.00  0.00     0.015 A 
HETATM    6  C   LIG     1      26.401  25.067  18.461  1.00  0.00     0.037 A 
HETATM    7  C   LIG     1      27.232  25.782  19.330  1.00  0.00     0.065 A 
HETATM    8  C   LIG     1      27.484  25.285  20.616  1.00  0.00     0.037 A 
HETATM    9  C   LIG     1      26.911  24.078  21.027  1.00  0.00     0.015 A 
BRANCH   7  10
HETATM   10  O   LIG     1      27.796  26.984  18.909  1.00  0.00    -0.361 OA
HETATM   11  H   LIG     1      27.266  27.658  18.372  1.00  0.00     0.217 HD
ENDBRANCH   7  10
ENDBRANCH   3   4
BRANCH   3  12
HETATM   12  C   LIG     1      24.142  22.212  21.326  1.00  0.00    -0.019 C 
HETATM   13  C   LIG     1      23.020  22.570  20.669  1.00  0.00    -0.018 C 
HETATM   14  C   LIG     1      21.695  22.775  21.343  1.00  0.00     0.037 C 
BRANCH  12  15
HETATM   15  C   LIG     1      24.116  21.892  22.772  1.00  0.00    -0.025 A 
HETATM   16  C   LIG     1      23.556  20.688  23.230  1.00  0.00     0.015 A 
HETATM   17  C   LIG     1      23.580  20.374  24.592  1.00  0.00     0.037 A 
HETATM   18  C   LIG     1      24.174  21.253  25.507  1.00  0.00     0.065 A 
HETATM   19  C   LIG     1      24.747  22.444  25.052  1.00  0.00     0.037 A 
HETATM   20  C   LIG     1      24.724  22.762  23.691  1.00  0.00     0.015 A 
BRANCH  18  21
HETATM   21  O   LIG     1      24.205  20.949  26.866  1.00  0.00    -0.361 OA
HETATM   22  H   LIG     1      24.769  21.482  27.516  1.00  0.00     0.217 HD
ENDBRANCH  18  21
ENDBRANCH  12  15
ENDBRANCH   3  12
TORSDOF 5
ENDMDL
MODEL 9
REMARK VINA RESULT:      -6.0     14.576     17.096
REMARK  5 active torsions:
REMARK  status: ('A' for Active; 'I' for Inactive)
REMARK    1  A    between atoms: C_3  and  C_4 
REMARK    2  A    between atoms: C_3  and  C_11 
REMARK    3  A    between atoms: C_7  and  O_8 
REMARK    4  A    between atoms: C_11  and  C_12 
REMARK    5  A    between atoms: C_15  and  O_16 
ROOT
HETATM    1  C   LIG     1      26.910  20.137  16.651  1.00  0.00     0.037 C 
HETATM    2  C   LIG     1      26.869  21.383  17.485  1.00  0.00    -0.018 C 
HETATM    3  C   LIG     1      25.849  21.693  18.312  1.00  0.00    -0.019 C 
ENDROOT
BRANCH   3   4
HETATM    4  C   LIG     1      24.722  20.754  18.525  1.00  0.00    -0.025 A 
HETATM    5  C   LIG     1      23.506  20.930  17.845  1.00  0.00     0.015 A 
HETATM    6  C   LIG     1      22.467  20.012  18.015  1.00  0.00     0.037 A 
HETATM    7  C   LIG     1      22.635  18.904  18.854  1.00  0.00     0.065 A 
HETATM    8  C   LIG     1      23.854  18.716  19.520  1.00  0.00     0.037 A 
HETATM    9  C   LIG     1      24.894  19.634  19.352  1.00  0.00     0.015 A 
BRANCH   7  10
HETATM   10  O   LIG     1      21.591  17.996  19.012  1.00  0.00    -0.361 OA
HETATM   11  H   LIG     1      21.111  17.597  18.215  1.00  0.00     0.217 HD
ENDBRANCH   7  10
ENDBRANCH   3   4
BRANCH   3  12
HETATM   12  C   LIG     1      25.830  22.982  19.059  1.00  0.00    -0.019 C 
HETATM   13  C   LIG     1      26.076  24.152  18.435  1.00  0.00    -0.018 C 
HETATM   14  C   LIG     1      26.147  25.472  19.145  1.00  0.00     0.037 C 
BRANCH  12  15
HETATM   15  C   LIG     1      25.506  22.937  20.504  1.00  0.00    -0.025 A 
HETATM   16  C   LIG     1      24.173  23.003  20.942  1.00  0.00     0.015 A 
HETATM   17  C   LIG     1      23.874  22.910  22.305  1.00  0.00     0.037 A 
HETATM   18  C   LIG     1      24.903  22.739  23.241  1.00  0.00     0.065 A 
HETATM   19  C   LIG     1      26.229  22.656  22.806  1.00  0.00     0.037 A 
HETATM   20  C   LIG     1      26.531  22.749  21.444  1.00  0.00     0.015 A 
BRANCH  18  21
HETATM   21  O   LIG     1      24.616  22.645  24.600  1.00  0.00    -0.361 OA
HETATM   22  H   LIG     1      25.216  23.067  25.299  1.00  0.00     0.217 HD
ENDBRANCH  18  21
ENDBRANCH  12  15
ENDBRANCH   3  12
TORSDOF 5
ENDMDL
MODEL 10
REMARK VINA RESULT:      -5.8      2.095      4.059
REMARK  5 active torsions:
REMARK  status: ('A' for Active; 'I' for Inactive)
REMARK    1  A    between atoms: C_3  and  C_4 
REMARK    2  A    between atoms: C_3  and  C_11 
REMARK    3  A    between atoms: C_7  and  O_8 
REMARK    4  A    between atoms: C_11  and  C_12 
REMARK    5  A    between atoms: C_15  and  O_16 
ROOT
HETATM    1  C   LIG     1      14.564  31.357  21.149  1.00  0.00     0.037 C 
HETATM    2  C   LIG     1      14.761  31.665  19.694  1.00  0.00    -0.018 C 
HETATM    3  C   LIG     1      15.127  32.878  19.232  1.00  0.00    -0.019 C 
ENDROOT
BRANCH   3   4
HETATM    4  C   LIG     1      15.458  33.985  20.161  1.00  0.00    -0.025 A 
HETATM    5  C   LIG     1      14.538  35.019  20.398  1.00  0.00     0.015 A 
HETATM    6  C   LIG     1      14.840  36.032  21.313  1.00  0.00     0.037 A 
HETATM    7  C   LIG     1      16.053  36.014  22.009  1.00  0.00     0.065 A 
HETATM    8  C   LIG     1      16.966  34.973  21.788  1.00  0.00     0.037 A 
HETATM    9  C   LIG     1      16.667  33.960  20.873  1.00  0.00     0.015 A 
BRANCH   7  10
HETATM   10  O   LIG     1      16.339  37.029  22.919  1.00  0.00    -0.361 OA
HETATM   11  H   LIG     1      16.818  37.874  22.635  1.00  0.00     0.217 HD
ENDBRANCH   7  10
ENDBRANCH   3   4
BRANCH   3  12
HETATM   12  C   LIG     1      15.234  33.143  17.770  1.00  0.00    -0.019 C 
HETATM   13  C   LIG     1      15.910  34.214  17.304  1.00  0.00    -0.018 C 
HETATM   14  C   LIG     1      15.989  34.576  15.850  1.00  0.00     0.037 C 
BRANCH  12  15
HETATM   15  C   LIG     1      14.596  32.177  16.845  1.00  0.00    -0.025 A 
HETATM   16  C   LIG     1      15.356  31.507  15.873  1.00  0.00     0.015 A 
HETATM   17  C   LIG     1      14.754  30.562  15.038  1.00  0.00     0.037 A 
HETATM   18  C   LIG     1      13.390  30.269  15.174  1.00  0.00     0.065 A 
HETATM   19  C   LIG     1      12.635  30.922  16.152  1.00  0.00     0.037 A 
HETATM   20  C   LIG     1      13.234  31.869  16.989  1.00  0.00     0.015 A 
BRANCH  18  21
HETATM   21  O   LIG     1      12.780  29.328  14.348  1.00  0.00    -0.361 OA
HETATM   22  H   LIG     1      11.972  29.562  13.784  1.00  0.00     0.217 HD
ENDBRANCH  18  21
ENDBRANCH  12  15
ENDBRANCH   3  12
TORSDOF 5
ENDMDL
MODEL 11
REMARK VINA RESULT:      -5.5     15.113     16.325
REMARK  5 active torsions:
REMARK  status: ('A' for Active; 'I' for Inactive)
REMARK    1  A    between atoms: C_3  and  C_4 
REMARK    2  A    between atoms: C_3  and  C_11 
REMARK    3  A    between atoms: C_7  and  O_8 
REMARK    4  A    between atoms: C_11  and  C_12 
REMARK    5  A    between atoms: C_15  and  O_16 
ROOT
HETATM    1  C   LIG     1      26.990  23.125  23.605  1.00  0.00     0.037 C 
HETATM    2  C   LIG     1      26.754  23.446  22.158  1.00  0.00    -0.018 C 
HETATM    3  C   LIG     1      25.859  22.795  21.387  1.00  0.00    -0.019 C 
ENDROOT
BRANCH   3   4
HETATM    4  C   LIG     1      24.962  21.762  21.957  1.00  0.00    -0.025 A 
HETATM    5  C   LIG     1      23.665  22.095  22.379  1.00  0.00     0.015 A 
HETATM    6  C   LIG     1      22.810  21.105  22.870  1.00  0.00     0.037 A 
HETATM    7  C   LIG     1      23.236  19.773  22.931  1.00  0.00     0.065 A 
HETATM    8  C   LIG     1      24.523  19.435  22.494  1.00  0.00     0.037 A 
HETATM    9  C   LIG     1      25.381  20.424  22.004  1.00  0.00     0.015 A 
BRANCH   7  10
HETATM   10  O   LIG     1      22.371  18.796  23.421  1.00  0.00    -0.361 OA
HETATM   11  H   LIG     1      21.496  19.040  23.867  1.00  0.00     0.217 HD
ENDBRANCH   7  10
ENDBRANCH   3   4
BRANCH   3  12
HETATM   12  C   LIG     1      25.723  23.109  19.937  1.00  0.00    -0.019 C 
HETATM   13  C   LIG     1      26.174  24.276  19.432  1.00  0.00    -0.018 C 
HETATM   14  C   LIG     1      25.998  24.681  17.998  1.00  0.00     0.037 C 
BRANCH  12  15
HETATM   15  C   LIG     1      25.099  22.086  19.065  1.00  0.00    -0.025 A 
HETATM   16  C   LIG     1      25.882  21.093  18.454  1.00  0.00     0.015 A 
HETATM   17  C   LIG     1      25.279  20.102  17.673  1.00  0.00     0.037 A 
HETATM   18  C   LIG     1      23.887  20.089  17.506  1.00  0.00     0.065 A 
HETATM   19  C   LIG     1      23.104  21.066  18.126  1.00  0.00     0.037 A 
HETATM   20  C   LIG     1      23.705  22.058  18.908  1.00  0.00     0.015 A 
BRANCH  18  21
HETATM   21  O   LIG     1      23.276  19.106  16.730  1.00  0.00    -0.361 OA
HETATM   22  H   LIG     1      23.275  18.133  17.012  1.00  0.00     0.217 HD
ENDBRANCH  18  21
ENDBRANCH  12  15
ENDBRANCH   3  12
TORSDOF 5
ENDMDL
MODEL 12
REMARK VINA RESULT:      -5.4     14.773     16.060
REMARK  5 active torsions:
REMARK  status: ('A' for Active; 'I' for Inactive)
REMARK    1  A    between atoms: C_3  and  C_4 
REMARK    2  A    between atoms: C_3  and  C_11 
REMARK    3  A    between atoms: C_7  and  O_8 
REMARK    4  A    between atoms: C_11  and  C_12 
REMARK    5  A    between atoms: C_15  and  O_16 
ROOT
HETATM    1  C   LIG     1      27.857  24.090  22.539  1.00  0.00     0.037 C 
HETATM    2  C   LIG     1      26.772  23.311  21.856  1.00  0.00    -0.018 C 
HETATM    3  C   LIG     1      26.449  23.466  20.556  1.00  0.00    -0.019 C 
ENDROOT
BRANCH   3   4
HETATM    4  C   LIG     1      27.226  24.368  19.674  1.00  0.00    -0.025 A 
HETATM    5  C   LIG     1      26.948  25.744  19.634  1.00  0.00     0.015 A 
HETATM    6  C   LIG     1      27.719  26.594  18.837  1.00  0.00     0.037 A 
HETATM    7  C   LIG     1      28.781  26.082  18.084  1.00  0.00     0.065 A 
HETATM    8  C   LIG     1      29.073  24.713  18.136  1.00  0.00     0.037 A 
HETATM    9  C   LIG     1      28.303  23.860  18.932  1.00  0.00     0.015 A 
BRANCH   7  10
HETATM   10  O   LIG     1      29.542  26.942  17.295  1.00  0.00    -0.361 OA
HETATM   11  H   LIG     1      29.414  26.993  16.292  1.00  0.00     0.217 HD
ENDBRANCH   7  10
ENDBRANCH   3   4
BRANCH   3  12
HETATM   12  C   LIG     1      25.311  22.716  19.953  1.00  0.00    -0.019 C 
HETATM   13  C   LIG     1      25.040  22.804  18.634  1.00  0.00    -0.018 C 
HETATM   14  C   LIG     1      23.865  22.135  17.983  1.00  0.00     0.037 C 
BRANCH  12  15
HETATM   15  C   LIG     1      24.503  21.852  20.846  1.00  0.00    -0.025 A 
HETATM   16  C   LIG     1      24.903  20.534  21.120  1.00  0.00     0.015 A 
HETATM   17  C   LIG     1      24.161  19.743  22.003  1.00  0.00     0.037 A 
HETATM   18  C   LIG     1      23.021  20.266  22.628  1.00  0.00     0.065 A 
HETATM   19  C   LIG     1      22.630  21.583  22.369  1.00  0.00     0.037 A 
HETATM   20  C   LIG     1      23.370  22.376  21.486  1.00  0.00     0.015 A 
BRANCH  18  21
HETATM   21  O   LIG     1      22.275  19.487  23.509  1.00  0.00    -0.361 OA
HETATM   22  H   LIG     1      22.427  18.489  23.594  1.00  0.00     0.217 HD
ENDBRANCH  18  21
ENDBRANCH  12  15
ENDBRANCH   3  12
TORSDOF 5
ENDMDL
MODEL 13
REMARK VINA RESULT:      -5.4     14.823     16.079
REMARK  5 active torsions:
REMARK  status: ('A' for Active; 'I' for Inactive)
REMARK    1  A    between atoms: C_3  and  C_4 
REMARK    2  A    between atoms: C_3  and  C_11 
REMARK    3  A    between atoms: C_7  and  O_8 
REMARK    4  A    between atoms: C_11  and  C_12 
REMARK    5  A    between atoms: C_15  and  O_16 
ROOT
HETATM    1  C   LIG     1      28.797  26.627  23.536  1.00  0.00     0.037 C 
HETATM    2  C   LIG     1      28.406  25.186  23.384  1.00  0.00    -0.018 C 
HETATM    3  C   LIG     1      28.247  24.580  22.189  1.00  0.00    -0.019 C 
ENDROOT
BRANCH   3   4
HETATM    4  C   LIG     1      28.548  25.288  20.923  1.00  0.00    -0.025 A 
HETATM    5  C   LIG     1      27.522  25.896  20.182  1.00  0.00     0.015 A 
HETATM    6  C   LIG     1      27.822  26.604  19.015  1.00  0.00     0.037 A 
HETATM    7  C   LIG     1      29.148  26.724  18.586  1.00  0.00     0.065 A 
HETATM    8  C   LIG     1      30.176  26.134  19.332  1.00  0.00     0.037 A 
HETATM    9  C   LIG     1      29.878  25.424  20.499  1.00  0.00     0.015 A 
BRANCH   7  10
HETATM   10  O   LIG     1      29.432  27.435  17.421  1.00  0.00    -0.361 OA
HETATM   11  H   LIG     1      30.221  28.067  17.367  1.00  0.00     0.217 HD
ENDBRANCH   7  10
ENDBRANCH   3   4
BRANCH   3  12
HETATM   12  C   LIG     1      27.785  23.166  22.101  1.00  0.00    -0.019 C 
HETATM   13  C   LIG     1      28.665  22.143  22.119  1.00  0.00    -0.018 C 
HETATM   14  C   LIG     1      28.268  20.705  21.956  1.00  0.00     0.037 C 
BRANCH  12  15
HETATM   15  C   LIG     1      26.326  22.920  22.020  1.00  0.00    -0.025 A 
HETATM   16  C   LIG     1      25.561  22.761  23.186  1.00  0.00     0.015 A 
HETATM   17  C   LIG     1      24.177  22.579  23.101  1.00  0.00     0.037 A 
HETATM   18  C   LIG     1      23.545  22.567  21.850  1.00  0.00     0.065 A 
HETATM   19  C   LIG     1      24.302  22.742  20.688  1.00  0.00     0.037 A 
HETATM   20  C   LIG     1      25.687  22.923  20.770  1.00  0.00     0.015 A 
BRANCH  18  21
HETATM   21  O   LIG     1      22.167  22.387  21.753  1.00  0.00    -0.361 OA
HETATM   22  H   LIG     1      21.526  22.854  22.384  1.00  0.00     0.217 HD
ENDBRANCH  18  21
ENDBRANCH  12  15
ENDBRANCH   3  12
TORSDOF 5
ENDMDL
MODEL 14
REMARK VINA RESULT:      -5.4     15.927     17.350
REMARK  5 active torsions:
REMARK  status: ('A' for Active; 'I' for Inactive)
REMARK    1  A    between atoms: C_3  and  C_4 
REMARK    2  A    between atoms: C_3  and  C_11 
REMARK    3  A    between atoms: C_7  and  O_8 
REMARK    4  A    between atoms: C_11  and  C_12 
REMARK    5  A    between atoms: C_15  and  O_16 
ROOT
HETATM    1  C   LIG     1      29.641  29.176  29.107  1.00  0.00     0.037 C 
HETATM    2  C   LIG     1      29.630  27.773  28.575  1.00  0.00    -0.018 C 
HETATM    3  C   LIG     1      29.172  26.715  29.274  1.00  0.00    -0.019 C 
ENDROOT
BRANCH   3   4
HETATM    4  C   LIG     1      28.548  26.888  30.607  1.00  0.00    -0.025 A 
HETATM    5  C   LIG     1      27.168  27.118  30.726  1.00  0.00     0.015 A 
HETATM    6  C   LIG     1      26.580  27.230  31.989  1.00  0.00     0.037 A 
HETATM    7  C   LIG     1      27.361  27.101  33.143  1.00  0.00     0.065 A 
HETATM    8  C   LIG     1      28.736  26.854  33.028  1.00  0.00     0.037 A 
HETATM    9  C   LIG     1      29.325  26.742  31.765  1.00  0.00     0.015 A 
BRANCH   7  10
HETATM   10  O   LIG     1      26.762  27.214  34.396  1.00  0.00    -0.361 OA
HETATM   11  H   LIG     1      27.236  27.660  35.171  1.00  0.00     0.217 HD
ENDBRANCH   7  10
ENDBRANCH   3   4
BRANCH   3  12
HETATM   12  C   LIG     1      29.256  25.334  28.720  1.00  0.00    -0.019 C 
HETATM   13  C   LIG     1      30.343  24.563  28.934  1.00  0.00    -0.018 C 
HETATM   14  C   LIG     1      30.520  23.197  28.341  1.00  0.00     0.037 C 
BRANCH  12  15
HETATM   15  C   LIG     1      28.096  24.827  27.951  1.00  0.00    -0.025 A 
HETATM   16  C   LIG     1      27.076  24.101  28.588  1.00  0.00     0.015 A 
HETATM   17  C   LIG     1      25.962  23.669  27.862  1.00  0.00     0.037 A 
HETATM   18  C   LIG     1      25.850  23.970  26.498  1.00  0.00     0.065 A 
HETATM   19  C   LIG     1      26.856  24.707  25.865  1.00  0.00     0.037 A 
HETATM   20  C   LIG     1      27.973  25.139  26.588  1.00  0.00     0.015 A 
BRANCH  18  21
HETATM   21  O   LIG     1      24.744  23.546  25.766  1.00  0.00    -0.361 OA
HETATM   22  H   LIG     1      23.799  23.692  26.101  1.00  0.00     0.217 HD
ENDBRANCH  18  21
ENDBRANCH  12  15
ENDBRANCH   3  12
TORSDOF 5
ENDMDL
MODEL 15
REMARK VINA RESULT:      -5.4     14.960     17.368
REMARK  5 active torsions:
REMARK  status: ('A' for Active; 'I' for Inactive)
REMARK    1  A    between atoms: C_3  and  C_4 
REMARK    2  A    between atoms: C_3  and  C_11 
REMARK    3  A    between atoms: C_7  and  O_8 
REMARK    4  A    between atoms: C_11  and  C_12 
REMARK    5  A    between atoms: C_15  and  O_16 
ROOT
HETATM    1  C   LIG     1      21.984  23.005  21.566  1.00  0.00     0.037 C 
HETATM    2  C   LIG     1      23.408  23.290  21.188  1.00  0.00    -0.018 C 
HETATM    3  C   LIG     1      24.134  22.498  20.373  1.00  0.00    -0.019 C 
ENDROOT
BRANCH   3   4
HETATM    4  C   LIG     1      23.529  21.320  19.708  1.00  0.00    -0.025 A 
HETATM    5  C   LIG     1      23.031  21.415  18.399  1.00  0.00     0.015 A 
HETATM    6  C   LIG     1      22.507  20.287  17.762  1.00  0.00     0.037 A 
HETATM    7  C   LIG     1      22.488  19.052  18.420  1.00  0.00     0.065 A 
HETATM    8  C   LIG     1      23.001  18.949  19.720  1.00  0.00     0.037 A 
HETATM    9  C   LIG     1      23.525  20.077  20.359  1.00  0.00     0.015 A 
BRANCH   7  10
HETATM   10  O   LIG     1      21.964  17.935  17.772  1.00  0.00    -0.361 OA
HETATM   11  H   LIG     1      21.646  17.981  16.813  1.00  0.00     0.217 HD
ENDBRANCH   7  10
ENDBRANCH   3   4
BRANCH   3  12
HETATM   12  C   LIG     1      25.568  22.792  20.094  1.00  0.00    -0.019 C 
HETATM   13  C   LIG     1      25.939  23.451  18.977  1.00  0.00    -0.018 C 
HETATM   14  C   LIG     1      27.369  23.710  18.602  1.00  0.00     0.037 C 
BRANCH  12  15
HETATM   15  C   LIG     1      26.569  22.361  21.098  1.00  0.00    -0.025 A 
HETATM   16  C   LIG     1      27.132  21.075  21.042  1.00  0.00     0.015 A 
HETATM   17  C   LIG     1      28.111  20.695  21.964  1.00  0.00     0.037 A 
HETATM   18  C   LIG     1      28.546  21.600  22.942  1.00  0.00     0.065 A 
HETATM   19  C   LIG     1      28.000  22.886  22.990  1.00  0.00     0.037 A 
HETATM   20  C   LIG     1      27.019  23.269  22.069  1.00  0.00     0.015 A 
BRANCH  18  21
HETATM   21  O   LIG     1      29.522  21.232  23.865  1.00  0.00    -0.361 OA
HETATM   22  H   LIG     1      30.502  21.440  23.712  1.00  0.00     0.217 HD
ENDBRANCH  18  21
ENDBRANCH  12  15
ENDBRANCH   3  12
TORSDOF 5
ENDMDL
MODEL 16
REMARK VINA RESULT:      -5.4     15.071     17.457
REMARK  5 active torsions:
REMARK  status: ('A' for Active; 'I' for Inactive)
REMARK    1  A    between atoms: C_3  and  C_4 
REMARK    2  A    between atoms: C_3  and  C_11 
REMARK    3  A    between atoms: C_7  and  O_8 
REMARK    4  A    between atoms: C_11  and  C_12 
REMARK    5  A    between atoms: C_15  and  O_16 
ROOT
HETATM    1  C   LIG     1      21.901  22.960  21.344  1.00  0.00     0.037 C 
HETATM    2  C   LIG     1      23.401  22.925  21.307  1.00  0.00    -0.018 C 
HETATM    3  C   LIG     1      24.108  21.976  20.660  1.00  0.00    -0.019 C 
ENDROOT
BRANCH   3   4
HETATM    4  C   LIG     1      23.433  20.938  19.845  1.00  0.00    -0.025 A 
HETATM    5  C   LIG     1      23.093  21.188  18.506  1.00  0.00     0.015 A 
HETATM    6  C   LIG     1      22.502  20.187  17.732  1.00  0.00     0.037 A 
HETATM    7  C   LIG     1      22.257  18.924  18.282  1.00  0.00     0.065 A 
HETATM    8  C   LIG     1      22.611  18.665  19.613  1.00  0.00     0.037 A 
HETATM    9  C   LIG     1      23.202  19.666  20.389  1.00  0.00     0.015 A 
BRANCH   7  10
HETATM   10  O   LIG     1      21.668  17.934  17.498  1.00  0.00    -0.361 OA
HETATM   11  H   LIG     1      22.227  17.272  16.974  1.00  0.00     0.217 HD
ENDBRANCH   7  10
ENDBRANCH   3   4
BRANCH   3  12
HETATM   12  C   LIG     1      25.596  21.952  20.721  1.00  0.00    -0.019 C 
HETATM   13  C   LIG     1      26.259  22.487  21.767  1.00  0.00    -0.018 C 
HETATM   14  C   LIG     1      27.755  22.561  21.851  1.00  0.00     0.037 C 
BRANCH  12  15
HETATM   15  C   LIG     1      26.322  21.297  19.607  1.00  0.00    -0.025 A 
HETATM   16  C   LIG     1      26.701  19.947  19.695  1.00  0.00     0.015 A 
HETATM   17  C   LIG     1      27.342  19.325  18.619  1.00  0.00     0.037 A 
HETATM   18  C   LIG     1      27.599  20.043  17.443  1.00  0.00     0.065 A 
HETATM   19  C   LIG     1      27.208  21.382  17.347  1.00  0.00     0.037 A 
HETATM   20  C   LIG     1      26.568  22.007  18.422  1.00  0.00     0.015 A 
BRANCH  18  21
HETATM   21  O   LIG     1      28.236  19.433  16.365  1.00  0.00    -0.361 OA
HETATM   22  H   LIG     1      27.711  19.020  15.603  1.00  0.00     0.217 HD
ENDBRANCH  18  21
ENDBRANCH  12  15
ENDBRANCH   3  12
TORSDOF 5
ENDMDL
MODEL 17
REMARK VINA RESULT:      -5.4     15.065     15.993
REMARK  5 active torsions:
REMARK  status: ('A' for Active; 'I' for Inactive)
REMARK    1  A    between atoms: C_3  and  C_4 
REMARK    2  A    between atoms: C_3  and  C_11 
REMARK    3  A    between atoms: C_7  and  O_8 
REMARK    4  A    between atoms: C_11  and  C_12 
REMARK    5  A    between atoms: C_15  and  O_16 
ROOT
HETATM    1  C   LIG     1      28.808  26.639  23.852  1.00  0.00     0.037 C 
HETATM    2  C   LIG     1      28.382  25.349  23.216  1.00  0.00    -0.018 C 
HETATM    3  C   LIG     1      27.931  24.287  23.914  1.00  0.00    -0.019 C 
ENDROOT
BRANCH   3   4
HETATM    4  C   LIG     1      27.733  24.361  25.381  1.00  0.00    -0.025 A 
HETATM    5  C   LIG     1      26.480  24.696  25.918  1.00  0.00     0.015 A 
HETATM    6  C   LIG     1      26.291  24.715  27.302  1.00  0.00     0.037 A 
HETATM    7  C   LIG     1      27.345  24.388  28.162  1.00  0.00     0.065 A 
HETATM    8  C   LIG     1      28.592  24.037  27.629  1.00  0.00     0.037 A 
HETATM    9  C   LIG     1      28.784  24.017  26.245  1.00  0.00     0.015 A 
BRANCH   7  10
HETATM   10  O   LIG     1      27.141  24.410  29.540  1.00  0.00    -0.361 OA
HETATM   11  H   LIG     1      26.604  23.691  30.007  1.00  0.00     0.217 HD
ENDBRANCH   7  10
ENDBRANCH   3   4
BRANCH   3  12
HETATM   12  C   LIG     1      27.593  23.006  23.232  1.00  0.00    -0.019 C 
HETATM   13  C   LIG     1      28.480  21.991  23.177  1.00  0.00    -0.018 C 
HETATM   14  C   LIG     1      28.229  20.709  22.441  1.00  0.00     0.037 C 
BRANCH  12  15
HETATM   15  C   LIG     1      26.241  22.875  22.640  1.00  0.00    -0.025 A 
HETATM   16  C   LIG     1      25.165  22.404  23.409  1.00  0.00     0.015 A 
HETATM   17  C   LIG     1      23.883  22.331  22.855  1.00  0.00     0.037 A 
HETATM   18  C   LIG     1      23.664  22.739  21.532  1.00  0.00     0.065 A 
HETATM   19  C   LIG     1      24.730  23.224  20.770  1.00  0.00     0.037 A 
HETATM   20  C   LIG     1      26.014  23.297  21.321  1.00  0.00     0.015 A 
BRANCH  18  21
HETATM   21  O   LIG     1      22.391  22.671  20.971  1.00  0.00    -0.361 OA
HETATM   22  H   LIG     1      21.638  23.270  21.290  1.00  0.00     0.217 HD
ENDBRANCH  18  21
ENDBRANCH  12  15
ENDBRANCH   3  12
TORSDOF 5
ENDMDL
MODEL 18
REMARK VINA RESULT:      -5.3     14.738     16.391
REMARK  5 active torsions:
REMARK  status: ('A' for Active; 'I' for Inactive)
REMARK    1  A    between atoms: C_3  and  C_4 
REMARK    2  A    between atoms: C_3  and  C_11 
REMARK    3  A    between atoms: C_7  and  O_8 
REMARK    4  A    between atoms: C_11  and  C_12 
REMARK    5  A    between atoms: C_15  and  O_16 
ROOT
HETATM    1  C   LIG     1      27.454  20.726  23.205  1.00  0.00     0.037 C 
HETATM    2  C   LIG     1      27.956  22.140  23.169  1.00  0.00    -0.018 C 
HETATM    3  C   LIG     1      27.409  23.105  22.401  1.00  0.00    -0.019 C 
ENDROOT
BRANCH   3   4
HETATM    4  C   LIG     1      26.190  22.848  21.598  1.00  0.00    -0.025 A 
HETATM    5  C   LIG     1      26.287  22.332  20.296  1.00  0.00     0.015 A 
HETATM    6  C   LIG     1      25.130  22.047  19.565  1.00  0.00     0.037 A 
HETATM    7  C   LIG     1      23.869  22.261  20.131  1.00  0.00     0.065 A 
HETATM    8  C   LIG     1      23.769  22.760  21.437  1.00  0.00     0.037 A 
HETATM    9  C   LIG     1      24.924  23.046  22.170  1.00  0.00     0.015 A 
BRANCH   7  10
HETATM   10  O   LIG     1      22.725  21.971  19.392  1.00  0.00    -0.361 OA
HETATM   11  H   LIG     1      22.727  22.003  18.380  1.00  0.00     0.217 HD
ENDBRANCH   7  10
ENDBRANCH   3   4
BRANCH   3  12
HETATM   12  C   LIG     1      27.999  24.473  22.351  1.00  0.00    -0.019 C 
HETATM   13  C   LIG     1      28.253  25.163  23.482  1.00  0.00    -0.018 C 
HETATM   14  C   LIG     1      28.773  26.570  23.495  1.00  0.00     0.037 C 
BRANCH  12  15
HETATM   15  C   LIG     1      28.320  25.037  21.019  1.00  0.00    -0.025 A 
HETATM   16  C   LIG     1      29.539  24.737  20.389  1.00  0.00     0.015 A 
HETATM   17  C   LIG     1      29.811  25.235  19.111  1.00  0.00     0.037 A 
HETATM   18  C   LIG     1      28.864  26.027  18.448  1.00  0.00     0.065 A 
HETATM   19  C   LIG     1      27.643  26.313  19.066  1.00  0.00     0.037 A 
HETATM   20  C   LIG     1      27.368  25.817  20.344  1.00  0.00     0.015 A 
BRANCH  18  21
HETATM   21  O   LIG     1      29.125  26.527  17.174  1.00  0.00    -0.361 OA
HETATM   22  H   LIG     1      28.723  26.105  16.346  1.00  0.00     0.217 HD
ENDBRANCH  18  21
ENDBRANCH  12  15
ENDBRANCH   3  12
TORSDOF 5
ENDMDL
MODEL 19
REMARK VINA RESULT:      -5.2     14.676     16.773
REMARK  5 active torsions:
REMARK  status: ('A' for Active; 'I' for Inactive)
REMARK    1  A    between atoms: C_3  and  C_4 
REMARK    2  A    between atoms: C_3  and  C_11 
REMARK    3  A    between atoms: C_7  and  O_8 
REMARK    4  A    between atoms: C_11  and  C_12 
REMARK    5  A    between atoms: C_15  and  O_16 
ROOT
HETATM    1  C   LIG     1      26.347  25.306  19.725  1.00  0.00     0.037 C 
HETATM    2  C   LIG     1      26.872  24.409  20.807  1.00  0.00    -0.018 C 
HETATM    3  C   LIG     1      26.359  23.192  21.079  1.00  0.00    -0.019 C 
ENDROOT
BRANCH   3   4
HETATM    4  C   LIG     1      25.282  22.609  20.246  1.00  0.00    -0.025 A 
HETATM    5  C   LIG     1      23.954  22.591  20.703  1.00  0.00     0.015 A 
HETATM    6  C   LIG     1      22.937  22.084  19.890  1.00  0.00     0.037 A 
HETATM    7  C   LIG     1      23.233  21.605  18.609  1.00  0.00     0.065 A 
HETATM    8  C   LIG     1      24.554  21.638  18.142  1.00  0.00     0.037 A 
HETATM    9  C   LIG     1      25.573  22.144  18.955  1.00  0.00     0.015 A 
BRANCH   7  10
HETATM   10  O   LIG     1      22.208  21.104  17.808  1.00  0.00    -0.361 OA
HETATM   11  H   LIG     1      21.973  20.119  17.805  1.00  0.00     0.217 HD
ENDBRANCH   7  10
ENDBRANCH   3   4
BRANCH   3  12
HETATM   12  C   LIG     1      26.875  22.378  22.216  1.00  0.00    -0.019 C 
HETATM   13  C   LIG     1      28.072  21.759  22.142  1.00  0.00    -0.018 C 
HETATM   14  C   LIG     1      28.610  20.865  23.220  1.00  0.00     0.037 C 
BRANCH  12  15
HETATM   15  C   LIG     1      26.042  22.294  23.438  1.00  0.00    -0.025 A 
HETATM   16  C   LIG     1      25.975  23.373  24.335  1.00  0.00     0.015 A 
HETATM   17  C   LIG     1      25.148  23.303  25.460  1.00  0.00     0.037 A 
HETATM   18  C   LIG     1      24.372  22.159  25.693  1.00  0.00     0.065 A 
HETATM   19  C   LIG     1      24.425  21.090  24.793  1.00  0.00     0.037 A 
HETATM   20  C   LIG     1      25.252  21.157  23.667  1.00  0.00     0.015 A 
BRANCH  18  21
HETATM   21  O   LIG     1      23.544  22.079  26.810  1.00  0.00    -0.361 OA
HETATM   22  H   LIG     1      23.846  21.620  27.661  1.00  0.00     0.217 HD
ENDBRANCH  18  21
ENDBRANCH  12  15
ENDBRANCH   3  12
TORSDOF 5
ENDMDL
MODEL 20
REMARK VINA RESULT:      -5.2     15.001     17.167
REMARK  5 active torsions:
REMARK  status: ('A' for Active; 'I' for Inactive)
REMARK    1  A    between atoms: C_3  and  C_4 
REMARK    2  A    between atoms: C_3  and  C_11 
REMARK    3  A    between atoms: C_7  and  O_8 
REMARK    4  A    between atoms: C_11  and  C_12 
REMARK    5  A    between atoms: C_15  and  O_16 
ROOT
HETATM    1  C   LIG     1      27.763  20.446  23.417  1.00  0.00     0.037 C 
HETATM    2  C   LIG     1      28.079  21.806  23.967  1.00  0.00    -0.018 C 
HETATM    3  C   LIG     1      27.375  22.915  23.660  1.00  0.00    -0.019 C 
ENDROOT
BRANCH   3   4
HETATM    4  C   LIG     1      26.160  22.844  22.814  1.00  0.00    -0.025 A 
HETATM    5  C   LIG     1      26.243  23.028  21.425  1.00  0.00     0.015 A 
HETATM    6  C   LIG     1      25.100  22.910  20.631  1.00  0.00     0.037 A 
HETATM    7  C   LIG     1      23.868  22.593  21.213  1.00  0.00     0.065 A 
HETATM    8  C   LIG     1      23.784  22.392  22.597  1.00  0.00     0.037 A 
HETATM    9  C   LIG     1      24.927  22.510  23.393  1.00  0.00     0.015 A 
BRANCH   7  10
HETATM   10  O   LIG     1      22.736  22.477  20.408  1.00  0.00    -0.361 OA
HETATM   11  H   LIG     1      22.655  22.980  19.533  1.00  0.00     0.217 HD
ENDBRANCH   7  10
ENDBRANCH   3   4
BRANCH   3  12
HETATM   12  C   LIG     1      27.783  24.251  24.179  1.00  0.00    -0.019 C 
HETATM   13  C   LIG     1      28.264  25.202  23.352  1.00  0.00    -0.018 C 
HETATM   14  C   LIG     1      28.761  26.537  23.825  1.00  0.00     0.037 C 
BRANCH  12  15
HETATM   15  C   LIG     1      27.616  24.508  25.629  1.00  0.00    -0.025 A 
HETATM   16  C   LIG     1      26.337  24.682  26.183  1.00  0.00     0.015 A 
HETATM   17  C   LIG     1      26.188  24.875  27.560  1.00  0.00     0.037 A 
HETATM   18  C   LIG     1      27.313  24.883  28.396  1.00  0.00     0.065 A 
HETATM   19  C   LIG     1      28.585  24.693  27.849  1.00  0.00     0.037 A 
HETATM   20  C   LIG     1      28.738  24.501  26.472  1.00  0.00     0.015 A 
BRANCH  18  21
HETATM   21  O   LIG     1      27.175  25.073  29.769  1.00  0.00    -0.361 OA
HETATM   22  H   LIG     1      27.227  24.298  30.419  1.00  0.00     0.217 HD
ENDBRANCH  18  21
ENDBRANCH  12  15
ENDBRANCH   3  12
TORSDOF 5
ENDMDL
