REMARK  6 active torsions:
REMARK  status: ('A' for Active; 'I' for Inactive)
REMARK    1  A    between atoms: C_2  and  C_6 
REMARK    2  A    between atoms: C_2  and  O_3 
REMARK    3  A    between atoms: O_3  and  C_4 
REMARK    4  A    between atoms: C_11  and  C_12 
REMARK    5  A    between atoms: C_12  and  O_13 
REMARK    6  A    between atoms: O_13  and  C_14 
ROOT
HETATM    1  C   LIG     1       0.574  -0.862  -0.577  1.00  0.00     0.055 A 
HETATM    2  C   LIG     1       1.085  -1.978  -1.264  1.00  0.00     0.018 A 
HETATM    3  C   LIG     1       0.229  -2.952  -1.780  1.00  0.00     0.001 A 
HETATM    4  C   LIG     1      -1.149  -2.827  -1.619  1.00  0.00     0.001 A 
HETATM    5  C   LIG     1      -1.676  -1.740  -0.923  1.00  0.00     0.018 A 
HETATM    6  C   LIG     1      -0.831  -0.757  -0.375  1.00  0.00     0.055 A 
ENDROOT
BRANCH   1   7
HETATM    7  C   LIG     1       1.529   0.188  -0.157  1.00  0.00     0.294 C 
HETATM    8  O   LIG     1       1.194   1.403  -0.187  1.00  0.00    -0.259 OA
BRANCH   7   9
HETATM    9  O   LIG     1       2.827  -0.176   0.225  1.00  0.00    -0.318 OA
BRANCH   9  10
HETATM   10  C   LIG     1       3.841   0.767   0.565  1.00  0.00     0.174 C 
HETATM   11  C   LIG     1       4.408   1.422  -0.689  1.00  0.00     0.034 C 
ENDBRANCH   9  10
ENDBRANCH   7   9
ENDBRANCH   1   7
BRANCH   6  12
HETATM   12  C   LIG     1      -1.451   0.306   0.448  1.00  0.00     0.294 C 
HETATM   13  O   LIG     1      -0.849   0.760   1.459  1.00  0.00    -0.259 OA
BRANCH  12  14
HETATM   14  O   LIG     1      -2.733   0.768   0.123  1.00  0.00    -0.318 OA
BRANCH  14  15
HETATM   15  C   LIG     1      -3.443   1.728   0.902  1.00  0.00     0.174 C 
HETATM   16  C   LIG     1      -4.009   1.084   2.163  1.00  0.00     0.034 C 
ENDBRANCH  14  15
ENDBRANCH  12  14
ENDBRANCH   6  12
TORSDOF 6
