REMARK  0 active torsions:
REMARK  status: ('A' for Active; 'I' for Inactive)
ROOT
HETATM    1  O   LIG     1       0.023   2.592   0.783  1.00  0.00    -0.287 OA
HETATM    2  C   LIG     1       0.012   1.384   0.418  1.00  0.00     0.194 A 
HETATM    3  C   LIG     1       1.290   0.660   0.218  1.00  0.00     0.029 A 
HETATM    4  C   LIG     1       1.278  -0.692  -0.190  1.00  0.00     0.029 A 
HETATM    5  C   LIG     1       2.497  -1.369  -0.377  1.00  0.00     0.016 A 
HETATM    6  C   LIG     1       3.711  -0.713  -0.160  1.00  0.00     0.001 A 
HETATM    7  C   LIG     1       3.723   0.622   0.243  1.00  0.00     0.001 A 
HETATM    8  C   LIG     1       2.521   1.307   0.432  1.00  0.00     0.016 A 
HETATM    9  C   LIG     1      -1.278   0.692   0.190  1.00  0.00     0.029 A 
HETATM   10  C   LIG     1      -2.497   1.369   0.377  1.00  0.00     0.016 A 
HETATM   11  C   LIG     1      -3.711   0.713   0.160  1.00  0.00     0.001 A 
HETATM   12  C   LIG     1      -3.723  -0.622  -0.243  1.00  0.00     0.001 A 
HETATM   13  C   LIG     1      -2.521  -1.307  -0.432  1.00  0.00     0.016 A 
HETATM   14  C   LIG     1      -1.290  -0.660  -0.218  1.00  0.00     0.029 A 
HETATM   15  C   LIG     1      -0.012  -1.384  -0.418  1.00  0.00     0.194 A 
HETATM   16  O   LIG     1      -0.023  -2.592  -0.783  1.00  0.00    -0.287 OA
ENDROOT
TORSDOF 0
