MODEL 1
REMARK VINA RESULT:      -6.9      0.000      0.000
REMARK  0 active torsions:
REMARK  status: ('A' for Active; 'I' for Inactive)
ROOT
HETATM    1  O   LIG     1      18.681  39.677  23.073  1.00  0.00    -0.287 OA
HETATM    2  C   LIG     1      18.355  38.576  22.549  1.00  0.00     0.194 A 
HETATM    3  C   LIG     1      17.857  37.470  23.401  1.00  0.00     0.029 A 
HETATM    4  C   LIG     1      17.492  36.238  22.815  1.00  0.00     0.029 A 
HETATM    5  C   LIG     1      17.021  35.195  23.634  1.00  0.00     0.016 A 
HETATM    6  C   LIG     1      16.913  35.374  25.015  1.00  0.00     0.001 A 
HETATM    7  C   LIG     1      17.274  36.590  25.594  1.00  0.00     0.001 A 
HETATM    8  C   LIG     1      17.743  37.634  24.794  1.00  0.00     0.016 A 
HETATM    9  C   LIG     1      18.470  38.391  21.084  1.00  0.00     0.029 A 
HETATM   10  C   LIG     1      18.941  39.434  20.265  1.00  0.00     0.016 A 
HETATM   11  C   LIG     1      19.049  39.255  18.884  1.00  0.00     0.001 A 
HETATM   12  C   LIG     1      18.688  38.038  18.305  1.00  0.00     0.001 A 
HETATM   13  C   LIG     1      18.219  36.994  19.105  1.00  0.00     0.016 A 
HETATM   14  C   LIG     1      18.105  37.159  20.498  1.00  0.00     0.029 A 
HETATM   15  C   LIG     1      17.607  36.053  21.350  1.00  0.00     0.194 A 
HETATM   16  O   LIG     1      17.281  34.952  20.826  1.00  0.00    -0.287 OA
ENDROOT
TORSDOF 0
ENDMDL
MODEL 2
REMARK VINA RESULT:      -6.9      0.047      5.423
REMARK  0 active torsions:
REMARK  status: ('A' for Active; 'I' for Inactive)
ROOT
HETATM    1  O   LIG     1      17.253  34.987  20.775  1.00  0.00    -0.287 OA
HETATM    2  C   LIG     1      17.597  36.074  21.316  1.00  0.00     0.194 A 
HETATM    3  C   LIG     1      18.110  37.186  20.481  1.00  0.00     0.029 A 
HETATM    4  C   LIG     1      18.494  38.403  21.086  1.00  0.00     0.029 A 
HETATM    5  C   LIG     1      18.980  39.451  20.284  1.00  0.00     0.016 A 
HETATM    6  C   LIG     1      19.080  39.295  18.899  1.00  0.00     0.001 A 
HETATM    7  C   LIG     1      18.700  38.093  18.302  1.00  0.00     0.001 A 
HETATM    8  C   LIG     1      18.217  37.044  19.085  1.00  0.00     0.016 A 
HETATM    9  C   LIG     1      17.488  36.236  22.785  1.00  0.00     0.029 A 
HETATM   10  C   LIG     1      17.002  35.187  23.587  1.00  0.00     0.016 A 
HETATM   11  C   LIG     1      16.902  35.344  24.972  1.00  0.00     0.001 A 
HETATM   12  C   LIG     1      17.282  36.545  25.569  1.00  0.00     0.001 A 
HETATM   13  C   LIG     1      17.765  37.595  24.786  1.00  0.00     0.016 A 
HETATM   14  C   LIG     1      17.872  37.453  23.390  1.00  0.00     0.029 A 
HETATM   15  C   LIG     1      18.385  38.565  22.555  1.00  0.00     0.194 A 
HETATM   16  O   LIG     1      18.729  39.652  23.096  1.00  0.00    -0.287 OA
ENDROOT
TORSDOF 0
ENDMDL
MODEL 3
REMARK VINA RESULT:      -6.9      0.047      2.766
REMARK  0 active torsions:
REMARK  status: ('A' for Active; 'I' for Inactive)
ROOT
HETATM    1  O   LIG     1      17.254  34.989  20.780  1.00  0.00    -0.287 OA
HETATM    2  C   LIG     1      17.600  36.077  21.319  1.00  0.00     0.194 A 
HETATM    3  C   LIG     1      17.489  36.242  22.788  1.00  0.00     0.029 A 
HETATM    4  C   LIG     1      17.876  37.458  23.392  1.00  0.00     0.029 A 
HETATM    5  C   LIG     1      17.766  37.604  24.787  1.00  0.00     0.016 A 
HETATM    6  C   LIG     1      17.280  36.556  25.571  1.00  0.00     0.001 A 
HETATM    7  C   LIG     1      16.898  35.354  24.975  1.00  0.00     0.001 A 
HETATM    8  C   LIG     1      17.001  35.195  23.592  1.00  0.00     0.016 A 
HETATM    9  C   LIG     1      18.116  37.185  20.483  1.00  0.00     0.029 A 
HETATM   10  C   LIG     1      18.226  37.040  19.088  1.00  0.00     0.016 A 
HETATM   11  C   LIG     1      18.712  38.088  18.303  1.00  0.00     0.001 A 
HETATM   12  C   LIG     1      19.094  39.289  18.900  1.00  0.00     0.001 A 
HETATM   13  C   LIG     1      18.991  39.448  20.283  1.00  0.00     0.016 A 
HETATM   14  C   LIG     1      18.503  38.402  21.087  1.00  0.00     0.029 A 
HETATM   15  C   LIG     1      18.392  38.567  22.556  1.00  0.00     0.194 A 
HETATM   16  O   LIG     1      18.738  39.655  23.095  1.00  0.00    -0.287 OA
ENDROOT
TORSDOF 0
ENDMDL
MODEL 4
REMARK VINA RESULT:      -6.9      0.022      4.665
REMARK  0 active torsions:
REMARK  status: ('A' for Active; 'I' for Inactive)
ROOT
HETATM    1  O   LIG     1      18.668  39.661  23.073  1.00  0.00    -0.287 OA
HETATM    2  C   LIG     1      18.345  38.558  22.552  1.00  0.00     0.194 A 
HETATM    3  C   LIG     1      18.461  38.370  21.086  1.00  0.00     0.029 A 
HETATM    4  C   LIG     1      18.100  37.136  20.503  1.00  0.00     0.029 A 
HETATM    5  C   LIG     1      18.214  36.969  19.111  1.00  0.00     0.016 A 
HETATM    6  C   LIG     1      18.683  38.012  18.309  1.00  0.00     0.001 A 
HETATM    7  C   LIG     1      19.040  39.231  18.885  1.00  0.00     0.001 A 
HETATM    8  C   LIG     1      18.931  39.412  20.265  1.00  0.00     0.016 A 
HETATM    9  C   LIG     1      17.849  37.454  23.406  1.00  0.00     0.029 A 
HETATM   10  C   LIG     1      17.735  37.621  24.798  1.00  0.00     0.016 A 
HETATM   11  C   LIG     1      17.266  36.577  25.600  1.00  0.00     0.001 A 
HETATM   12  C   LIG     1      16.909  35.358  25.024  1.00  0.00     0.001 A 
HETATM   13  C   LIG     1      17.018  35.178  23.644  1.00  0.00     0.016 A 
HETATM   14  C   LIG     1      17.488  36.219  22.823  1.00  0.00     0.029 A 
HETATM   15  C   LIG     1      17.604  36.031  21.357  1.00  0.00     0.194 A 
HETATM   16  O   LIG     1      17.281  34.928  20.836  1.00  0.00    -0.287 OA
ENDROOT
TORSDOF 0
ENDMDL
MODEL 5
REMARK VINA RESULT:      -6.5      7.725     10.313
REMARK  0 active torsions:
REMARK  status: ('A' for Active; 'I' for Inactive)
ROOT
HETATM    1  O   LIG     1      15.730  30.391  13.029  1.00  0.00    -0.287 OA
HETATM    2  C   LIG     1      15.786  31.341  13.857  1.00  0.00     0.194 A 
HETATM    3  C   LIG     1      16.785  32.421  13.677  1.00  0.00     0.029 A 
HETATM    4  C   LIG     1      16.848  33.485  14.604  1.00  0.00     0.029 A 
HETATM    5  C   LIG     1      17.801  34.505  14.423  1.00  0.00     0.016 A 
HETATM    6  C   LIG     1      18.678  34.469  13.336  1.00  0.00     0.001 A 
HETATM    7  C   LIG     1      18.616  33.418  12.421  1.00  0.00     0.001 A 
HETATM    8  C   LIG     1      17.676  32.399  12.588  1.00  0.00     0.016 A 
HETATM    9  C   LIG     1      14.854  31.376  15.008  1.00  0.00     0.029 A 
HETATM   10  C   LIG     1      13.901  30.356  15.189  1.00  0.00     0.016 A 
HETATM   11  C   LIG     1      13.024  30.392  16.276  1.00  0.00     0.001 A 
HETATM   12  C   LIG     1      13.086  31.443  17.191  1.00  0.00     0.001 A 
HETATM   13  C   LIG     1      14.026  32.462  17.024  1.00  0.00     0.016 A 
HETATM   14  C   LIG     1      14.917  32.440  15.935  1.00  0.00     0.029 A 
HETATM   15  C   LIG     1      15.916  33.520  15.754  1.00  0.00     0.194 A 
HETATM   16  O   LIG     1      15.972  34.470  16.583  1.00  0.00    -0.287 OA
ENDROOT
TORSDOF 0
ENDMDL
MODEL 6
REMARK VINA RESULT:      -6.5      7.686      9.040
REMARK  0 active torsions:
REMARK  status: ('A' for Active; 'I' for Inactive)
ROOT
HETATM    1  O   LIG     1      16.055  34.360  16.693  1.00  0.00    -0.287 OA
HETATM    2  C   LIG     1      15.963  33.445  15.829  1.00  0.00     0.194 A 
HETATM    3  C   LIG     1      14.951  32.374  15.990  1.00  0.00     0.029 A 
HETATM    4  C   LIG     1      14.848  31.350  15.024  1.00  0.00     0.029 A 
HETATM    5  C   LIG     1      13.883  30.339  15.187  1.00  0.00     0.016 A 
HETATM    6  C   LIG     1      13.031  30.346  16.294  1.00  0.00     0.001 A 
HETATM    7  C   LIG     1      13.133  31.358  17.248  1.00  0.00     0.001 A 
HETATM    8  C   LIG     1      14.086  32.367  17.100  1.00  0.00     0.016 A 
HETATM    9  C   LIG     1      16.868  33.441  14.656  1.00  0.00     0.029 A 
HETATM   10  C   LIG     1      17.833  34.452  14.493  1.00  0.00     0.016 A 
HETATM   11  C   LIG     1      18.685  34.445  13.386  1.00  0.00     0.001 A 
HETATM   12  C   LIG     1      18.584  33.433  12.431  1.00  0.00     0.001 A 
HETATM   13  C   LIG     1      17.631  32.423  12.580  1.00  0.00     0.016 A 
HETATM   14  C   LIG     1      16.766  32.417  13.689  1.00  0.00     0.029 A 
HETATM   15  C   LIG     1      15.753  31.346  13.851  1.00  0.00     0.194 A 
HETATM   16  O   LIG     1      15.662  30.431  12.987  1.00  0.00    -0.287 OA
ENDROOT
TORSDOF 0
ENDMDL
MODEL 7
REMARK VINA RESULT:      -6.5      7.686      9.952
REMARK  0 active torsions:
REMARK  status: ('A' for Active; 'I' for Inactive)
ROOT
HETATM    1  O   LIG     1      16.055  34.358  16.695  1.00  0.00    -0.287 OA
HETATM    2  C   LIG     1      15.963  33.443  15.831  1.00  0.00     0.194 A 
HETATM    3  C   LIG     1      16.868  33.440  14.656  1.00  0.00     0.029 A 
HETATM    4  C   LIG     1      16.765  32.416  13.690  1.00  0.00     0.029 A 
HETATM    5  C   LIG     1      17.629  32.423  12.579  1.00  0.00     0.016 A 
HETATM    6  C   LIG     1      18.583  33.433  12.432  1.00  0.00     0.001 A 
HETATM    7  C   LIG     1      18.684  34.445  13.386  1.00  0.00     0.001 A 
HETATM    8  C   LIG     1      17.833  34.451  14.494  1.00  0.00     0.016 A 
HETATM    9  C   LIG     1      14.951  32.373  15.992  1.00  0.00     0.029 A 
HETATM   10  C   LIG     1      14.087  32.366  17.102  1.00  0.00     0.016 A 
HETATM   11  C   LIG     1      13.133  31.356  17.249  1.00  0.00     0.001 A 
HETATM   12  C   LIG     1      13.031  30.344  16.295  1.00  0.00     0.001 A 
HETATM   13  C   LIG     1      13.882  30.339  15.188  1.00  0.00     0.016 A 
HETATM   14  C   LIG     1      14.848  31.349  15.025  1.00  0.00     0.029 A 
HETATM   15  C   LIG     1      15.753  31.346  13.851  1.00  0.00     0.194 A 
HETATM   16  O   LIG     1      15.660  30.431  12.987  1.00  0.00    -0.287 OA
ENDROOT
TORSDOF 0
ENDMDL
MODEL 8
REMARK VINA RESULT:      -6.4      7.730      9.440
REMARK  0 active torsions:
REMARK  status: ('A' for Active; 'I' for Inactive)
ROOT
HETATM    1  O   LIG     1      15.734  30.399  13.033  1.00  0.00    -0.287 OA
HETATM    2  C   LIG     1      15.792  31.356  13.853  1.00  0.00     0.194 A 
HETATM    3  C   LIG     1      14.845  31.413  14.992  1.00  0.00     0.029 A 
HETATM    4  C   LIG     1      14.909  32.484  15.910  1.00  0.00     0.029 A 
HETATM    5  C   LIG     1      14.005  32.528  16.987  1.00  0.00     0.016 A 
HETATM    6  C   LIG     1      13.052  31.520  17.151  1.00  0.00     0.001 A 
HETATM    7  C   LIG     1      12.988  30.462  16.245  1.00  0.00     0.001 A 
HETATM    8  C   LIG     1      13.878  30.406  15.171  1.00  0.00     0.016 A 
HETATM    9  C   LIG     1      16.806  32.422  13.676  1.00  0.00     0.029 A 
HETATM   10  C   LIG     1      17.710  32.379  12.599  1.00  0.00     0.016 A 
HETATM   11  C   LIG     1      18.663  33.386  12.435  1.00  0.00     0.001 A 
HETATM   12  C   LIG     1      18.727  34.444  13.341  1.00  0.00     0.001 A 
HETATM   13  C   LIG     1      17.837  34.500  14.415  1.00  0.00     0.016 A 
HETATM   14  C   LIG     1      16.870  33.493  14.594  1.00  0.00     0.029 A 
HETATM   15  C   LIG     1      15.923  33.550  15.733  1.00  0.00     0.194 A 
HETATM   16  O   LIG     1      15.981  34.507  16.553  1.00  0.00    -0.287 OA
ENDROOT
TORSDOF 0
ENDMDL
MODEL 9
REMARK VINA RESULT:      -6.1      2.185      3.417
REMARK  0 active torsions:
REMARK  status: ('A' for Active; 'I' for Inactive)
ROOT
HETATM    1  O   LIG     1      16.219  36.894  23.509  1.00  0.00    -0.287 OA
HETATM    2  C   LIG     1      16.609  36.742  22.319  1.00  0.00     0.194 A 
HETATM    3  C   LIG     1      16.099  35.608  21.513  1.00  0.00     0.029 A 
HETATM    4  C   LIG     1      16.535  35.438  20.180  1.00  0.00     0.029 A 
HETATM    5  C   LIG     1      16.046  34.357  19.424  1.00  0.00     0.016 A 
HETATM    6  C   LIG     1      15.134  33.458  19.984  1.00  0.00     0.001 A 
HETATM    7  C   LIG     1      14.703  33.626  21.299  1.00  0.00     0.001 A 
HETATM    8  C   LIG     1      15.181  34.694  22.062  1.00  0.00     0.016 A 
HETATM    9  C   LIG     1      17.575  37.699  21.729  1.00  0.00     0.029 A 
HETATM   10  C   LIG     1      18.065  38.779  22.485  1.00  0.00     0.016 A 
HETATM   11  C   LIG     1      18.976  39.678  21.926  1.00  0.00     0.001 A 
HETATM   12  C   LIG     1      19.407  39.510  20.610  1.00  0.00     0.001 A 
HETATM   13  C   LIG     1      18.929  38.443  19.848  1.00  0.00     0.016 A 
HETATM   14  C   LIG     1      18.011  37.529  20.397  1.00  0.00     0.029 A 
HETATM   15  C   LIG     1      17.502  36.394  19.591  1.00  0.00     0.194 A 
HETATM   16  O   LIG     1      17.892  36.242  18.400  1.00  0.00    -0.287 OA
ENDROOT
TORSDOF 0
ENDMDL
MODEL 10
REMARK VINA RESULT:      -6.1      2.192      4.403
REMARK  0 active torsions:
REMARK  status: ('A' for Active; 'I' for Inactive)
ROOT
HETATM    1  O   LIG     1      16.187  36.889  23.503  1.00  0.00    -0.287 OA
HETATM    2  C   LIG     1      16.584  36.738  22.314  1.00  0.00     0.194 A 
HETATM    3  C   LIG     1      17.548  37.699  21.728  1.00  0.00     0.029 A 
HETATM    4  C   LIG     1      17.993  37.529  20.398  1.00  0.00     0.029 A 
HETATM    5  C   LIG     1      18.908  38.448  19.853  1.00  0.00     0.016 A 
HETATM    6  C   LIG     1      19.377  39.518  20.617  1.00  0.00     0.001 A 
HETATM    7  C   LIG     1      18.938  39.686  21.930  1.00  0.00     0.001 A 
HETATM    8  C   LIG     1      18.029  38.783  22.485  1.00  0.00     0.016 A 
HETATM    9  C   LIG     1      16.084  35.600  21.507  1.00  0.00     0.029 A 
HETATM   10  C   LIG     1      15.169  34.682  22.053  1.00  0.00     0.016 A 
HETATM   11  C   LIG     1      14.700  33.611  21.289  1.00  0.00     0.001 A 
HETATM   12  C   LIG     1      15.139  33.443  19.975  1.00  0.00     0.001 A 
HETATM   13  C   LIG     1      16.047  34.347  19.420  1.00  0.00     0.016 A 
HETATM   14  C   LIG     1      16.529  35.430  20.178  1.00  0.00     0.029 A 
HETATM   15  C   LIG     1      17.493  36.391  19.591  1.00  0.00     0.194 A 
HETATM   16  O   LIG     1      17.890  36.240  18.403  1.00  0.00    -0.287 OA
ENDROOT
TORSDOF 0
ENDMDL
MODEL 11
REMARK VINA RESULT:      -6.1      2.188      4.739
REMARK  0 active torsions:
REMARK  status: ('A' for Active; 'I' for Inactive)
ROOT
HETATM    1  O   LIG     1      17.893  36.270  18.346  1.00  0.00    -0.287 OA
HETATM    2  C   LIG     1      17.518  36.399  19.544  1.00  0.00     0.194 A 
HETATM    3  C   LIG     1      18.043  37.516  20.366  1.00  0.00     0.029 A 
HETATM    4  C   LIG     1      17.624  37.661  21.707  1.00  0.00     0.029 A 
HETATM    5  C   LIG     1      18.129  38.724  22.478  1.00  0.00     0.016 A 
HETATM    6  C   LIG     1      19.036  39.631  21.925  1.00  0.00     0.001 A 
HETATM    7  C   LIG     1      19.450  39.487  20.601  1.00  0.00     0.001 A 
HETATM    8  C   LIG     1      18.958  38.437  19.824  1.00  0.00     0.016 A 
HETATM    9  C   LIG     1      16.555  35.436  20.126  1.00  0.00     0.029 A 
HETATM   10  C   LIG     1      16.050  34.373  19.355  1.00  0.00     0.016 A 
HETATM   11  C   LIG     1      15.143  33.467  19.908  1.00  0.00     0.001 A 
HETATM   12  C   LIG     1      14.729  33.610  21.232  1.00  0.00     0.001 A 
HETATM   13  C   LIG     1      15.221  34.661  22.010  1.00  0.00     0.016 A 
HETATM   14  C   LIG     1      16.136  35.582  21.467  1.00  0.00     0.029 A 
HETATM   15  C   LIG     1      16.661  36.698  22.289  1.00  0.00     0.194 A 
HETATM   16  O   LIG     1      16.286  36.828  23.487  1.00  0.00    -0.287 OA
ENDROOT
TORSDOF 0
ENDMDL
MODEL 12
REMARK VINA RESULT:      -6.1      2.188      3.868
REMARK  0 active torsions:
REMARK  status: ('A' for Active; 'I' for Inactive)
ROOT
HETATM    1  O   LIG     1      17.894  36.270  18.346  1.00  0.00    -0.287 OA
HETATM    2  C   LIG     1      17.519  36.401  19.544  1.00  0.00     0.194 A 
HETATM    3  C   LIG     1      16.555  35.437  20.126  1.00  0.00     0.029 A 
HETATM    4  C   LIG     1      16.135  35.582  21.467  1.00  0.00     0.029 A 
HETATM    5  C   LIG     1      15.220  34.662  22.009  1.00  0.00     0.016 A 
HETATM    6  C   LIG     1      14.729  33.611  21.231  1.00  0.00     0.001 A 
HETATM    7  C   LIG     1      15.143  33.467  19.907  1.00  0.00     0.001 A 
HETATM    8  C   LIG     1      16.051  34.373  19.355  1.00  0.00     0.016 A 
HETATM    9  C   LIG     1      18.043  37.516  20.365  1.00  0.00     0.029 A 
HETATM   10  C   LIG     1      18.959  38.437  19.823  1.00  0.00     0.016 A 
HETATM   11  C   LIG     1      19.450  39.488  20.601  1.00  0.00     0.001 A 
HETATM   12  C   LIG     1      19.036  39.632  21.925  1.00  0.00     0.001 A 
HETATM   13  C   LIG     1      18.128  38.726  22.477  1.00  0.00     0.016 A 
HETATM   14  C   LIG     1      17.624  37.662  21.706  1.00  0.00     0.029 A 
HETATM   15  C   LIG     1      16.660  36.698  22.288  1.00  0.00     0.194 A 
HETATM   16  O   LIG     1      16.285  36.829  23.486  1.00  0.00    -0.287 OA
ENDROOT
TORSDOF 0
ENDMDL
MODEL 13
REMARK VINA RESULT:      -5.8      6.035      7.656
REMARK  0 active torsions:
REMARK  status: ('A' for Active; 'I' for Inactive)
ROOT
HETATM    1  O   LIG     1      16.586  34.732  15.971  1.00  0.00    -0.287 OA
HETATM    2  C   LIG     1      15.971  33.751  16.473  1.00  0.00     0.194 A 
HETATM    3  C   LIG     1      15.636  33.748  17.917  1.00  0.00     0.029 A 
HETATM    4  C   LIG     1      14.948  32.651  18.479  1.00  0.00     0.029 A 
HETATM    5  C   LIG     1      14.636  32.659  19.851  1.00  0.00     0.016 A 
HETATM    6  C   LIG     1      15.000  33.743  20.653  1.00  0.00     0.001 A 
HETATM    7  C   LIG     1      15.680  34.827  20.098  1.00  0.00     0.001 A 
HETATM    8  C   LIG     1      15.997  34.832  18.738  1.00  0.00     0.016 A 
HETATM    9  C   LIG     1      15.585  32.604  15.619  1.00  0.00     0.029 A 
HETATM   10  C   LIG     1      15.897  32.596  14.247  1.00  0.00     0.016 A 
HETATM   11  C   LIG     1      15.533  31.512  13.445  1.00  0.00     0.001 A 
HETATM   12  C   LIG     1      14.853  30.428  14.000  1.00  0.00     0.001 A 
HETATM   13  C   LIG     1      14.536  30.422  15.360  1.00  0.00     0.016 A 
HETATM   14  C   LIG     1      14.897  31.506  16.181  1.00  0.00     0.029 A 
HETATM   15  C   LIG     1      14.562  31.504  17.625  1.00  0.00     0.194 A 
HETATM   16  O   LIG     1      13.948  30.522  18.127  1.00  0.00    -0.287 OA
ENDROOT
TORSDOF 0
ENDMDL
MODEL 14
REMARK VINA RESULT:      -5.8      6.107      8.040
REMARK  0 active torsions:
REMARK  status: ('A' for Active; 'I' for Inactive)
ROOT
HETATM    1  O   LIG     1      13.894  30.465  18.030  1.00  0.00    -0.287 OA
HETATM    2  C   LIG     1      14.523  31.446  17.546  1.00  0.00     0.194 A 
HETATM    3  C   LIG     1      14.906  32.582  18.419  1.00  0.00     0.029 A 
HETATM    4  C   LIG     1      15.610  33.680  17.878  1.00  0.00     0.029 A 
HETATM    5  C   LIG     1      15.968  34.752  18.715  1.00  0.00     0.016 A 
HETATM    6  C   LIG     1      15.634  34.733  20.071  1.00  0.00     0.001 A 
HETATM    7  C   LIG     1      14.939  33.649  20.606  1.00  0.00     0.001 A 
HETATM    8  C   LIG     1      14.576  32.577  19.787  1.00  0.00     0.016 A 
HETATM    9  C   LIG     1      14.876  31.462  16.108  1.00  0.00     0.029 A 
HETATM   10  C   LIG     1      14.518  30.390  15.270  1.00  0.00     0.016 A 
HETATM   11  C   LIG     1      14.852  30.409  13.914  1.00  0.00     0.001 A 
HETATM   12  C   LIG     1      15.547  31.494  13.380  1.00  0.00     0.001 A 
HETATM   13  C   LIG     1      15.910  32.565  14.199  1.00  0.00     0.016 A 
HETATM   14  C   LIG     1      15.580  32.560  15.567  1.00  0.00     0.029 A 
HETATM   15  C   LIG     1      15.963  33.696  16.439  1.00  0.00     0.194 A 
HETATM   16  O   LIG     1      16.592  34.677  15.955  1.00  0.00    -0.287 OA
ENDROOT
TORSDOF 0
ENDMDL
MODEL 15
REMARK VINA RESULT:      -5.8      6.071      8.845
REMARK  0 active torsions:
REMARK  status: ('A' for Active; 'I' for Inactive)
ROOT
HETATM    1  O   LIG     1      13.931  30.466  18.079  1.00  0.00    -0.287 OA
HETATM    2  C   LIG     1      14.546  31.455  17.593  1.00  0.00     0.194 A 
HETATM    3  C   LIG     1      14.892  31.476  16.152  1.00  0.00     0.029 A 
HETATM    4  C   LIG     1      15.580  32.583  15.608  1.00  0.00     0.029 A 
HETATM    5  C   LIG     1      15.904  32.592  14.239  1.00  0.00     0.016 A 
HETATM    6  C   LIG     1      15.548  31.517  13.421  1.00  0.00     0.001 A 
HETATM    7  C   LIG     1      14.868  30.424  13.958  1.00  0.00     0.001 A 
HETATM    8  C   LIG     1      14.541  30.401  15.316  1.00  0.00     0.016 A 
HETATM    9  C   LIG     1      14.921  32.593  18.465  1.00  0.00     0.029 A 
HETATM   10  C   LIG     1      14.597  32.585  19.834  1.00  0.00     0.016 A 
HETATM   11  C   LIG     1      14.953  33.660  20.651  1.00  0.00     0.001 A 
HETATM   12  C   LIG     1      15.632  34.753  20.114  1.00  0.00     0.001 A 
HETATM   13  C   LIG     1      15.960  34.776  18.757  1.00  0.00     0.016 A 
HETATM   14  C   LIG     1      15.609  33.701  17.920  1.00  0.00     0.029 A 
HETATM   15  C   LIG     1      15.955  33.721  16.479  1.00  0.00     0.194 A 
HETATM   16  O   LIG     1      16.569  34.711  15.993  1.00  0.00    -0.287 OA
ENDROOT
TORSDOF 0
ENDMDL
MODEL 16
REMARK VINA RESULT:      -5.7      6.037      8.520
REMARK  0 active torsions:
REMARK  status: ('A' for Active; 'I' for Inactive)
ROOT
HETATM    1  O   LIG     1      16.589  34.720  15.952  1.00  0.00    -0.287 OA
HETATM    2  C   LIG     1      15.974  33.743  16.463  1.00  0.00     0.194 A 
HETATM    3  C   LIG     1      15.582  32.591  15.617  1.00  0.00     0.029 A 
HETATM    4  C   LIG     1      14.894  31.498  16.188  1.00  0.00     0.029 A 
HETATM    5  C   LIG     1      14.527  30.410  15.376  1.00  0.00     0.016 A 
HETATM    6  C   LIG     1      14.839  30.407  14.014  1.00  0.00     0.001 A 
HETATM    7  C   LIG     1      15.518  31.486  13.449  1.00  0.00     0.001 A 
HETATM    8  C   LIG     1      15.889  32.573  14.244  1.00  0.00     0.016 A 
HETATM    9  C   LIG     1      15.646  33.751  17.907  1.00  0.00     0.029 A 
HETATM   10  C   LIG     1      16.014  34.838  18.720  1.00  0.00     0.016 A 
HETATM   11  C   LIG     1      15.701  34.842  20.082  1.00  0.00     0.001 A 
HETATM   12  C   LIG     1      15.022  33.762  20.647  1.00  0.00     0.001 A 
HETATM   13  C   LIG     1      14.651  32.675  19.852  1.00  0.00     0.016 A 
HETATM   14  C   LIG     1      14.958  32.658  18.479  1.00  0.00     0.029 A 
HETATM   15  C   LIG     1      14.566  31.506  17.633  1.00  0.00     0.194 A 
HETATM   16  O   LIG     1      13.951  30.529  18.144  1.00  0.00    -0.287 OA
ENDROOT
TORSDOF 0
ENDMDL
MODEL 17
REMARK VINA RESULT:      -5.4      8.418     10.671
REMARK  0 active torsions:
REMARK  status: ('A' for Active; 'I' for Inactive)
ROOT
HETATM    1  O   LIG     1      12.525  30.487  16.643  1.00  0.00    -0.287 OA
HETATM    2  C   LIG     1      13.547  30.702  15.934  1.00  0.00     0.194 A 
HETATM    3  C   LIG     1      13.961  29.709  14.913  1.00  0.00     0.029 A 
HETATM    4  C   LIG     1      15.104  29.949  14.119  1.00  0.00     0.029 A 
HETATM    5  C   LIG     1      15.487  29.000  13.154  1.00  0.00     0.016 A 
HETATM    6  C   LIG     1      14.745  27.830  12.979  1.00  0.00     0.001 A 
HETATM    7  C   LIG     1      13.617  27.592  13.763  1.00  0.00     0.001 A 
HETATM    8  C   LIG     1      13.224  28.525  14.725  1.00  0.00     0.016 A 
HETATM    9  C   LIG     1      14.330  31.945  16.122  1.00  0.00     0.029 A 
HETATM   10  C   LIG     1      13.946  32.894  17.087  1.00  0.00     0.016 A 
HETATM   11  C   LIG     1      14.688  34.064  17.262  1.00  0.00     0.001 A 
HETATM   12  C   LIG     1      15.817  34.302  16.478  1.00  0.00     0.001 A 
HETATM   13  C   LIG     1      16.210  33.369  15.516  1.00  0.00     0.016 A 
HETATM   14  C   LIG     1      15.473  32.185  15.328  1.00  0.00     0.029 A 
HETATM   15  C   LIG     1      15.887  31.192  14.308  1.00  0.00     0.194 A 
HETATM   16  O   LIG     1      16.909  31.407  13.599  1.00  0.00    -0.287 OA
ENDROOT
TORSDOF 0
ENDMDL
MODEL 18
REMARK VINA RESULT:      -5.4      8.429     10.598
REMARK  0 active torsions:
REMARK  status: ('A' for Active; 'I' for Inactive)
ROOT
HETATM    1  O   LIG     1      12.466  30.503  16.594  1.00  0.00    -0.287 OA
HETATM    2  C   LIG     1      13.505  30.708  15.907  1.00  0.00     0.194 A 
HETATM    3  C   LIG     1      14.295  31.945  16.113  1.00  0.00     0.029 A 
HETATM    4  C   LIG     1      15.458  32.175  15.345  1.00  0.00     0.029 A 
HETATM    5  C   LIG     1      16.200  33.353  15.549  1.00  0.00     0.016 A 
HETATM    6  C   LIG     1      15.793  34.289  16.503  1.00  0.00     0.001 A 
HETATM    7  C   LIG     1      14.645  34.062  17.261  1.00  0.00     0.001 A 
HETATM    8  C   LIG     1      13.898  32.898  17.070  1.00  0.00     0.016 A 
HETATM    9  C   LIG     1      13.932  29.713  14.897  1.00  0.00     0.029 A 
HETATM   10  C   LIG     1      13.190  28.535  14.693  1.00  0.00     0.016 A 
HETATM   11  C   LIG     1      13.596  27.599  13.739  1.00  0.00     0.001 A 
HETATM   12  C   LIG     1      14.745  27.826  12.980  1.00  0.00     0.001 A 
HETATM   13  C   LIG     1      15.491  28.990  13.172  1.00  0.00     0.016 A 
HETATM   14  C   LIG     1      15.095  29.942  14.129  1.00  0.00     0.029 A 
HETATM   15  C   LIG     1      15.885  31.180  14.335  1.00  0.00     0.194 A 
HETATM   16  O   LIG     1      16.924  31.385  13.648  1.00  0.00    -0.287 OA
ENDROOT
TORSDOF 0
ENDMDL
MODEL 19
REMARK VINA RESULT:      -5.2      5.212      7.370
REMARK  0 active torsions:
REMARK  status: ('A' for Active; 'I' for Inactive)
ROOT
HETATM    1  O   LIG     1      16.021  34.855  16.648  1.00  0.00    -0.287 OA
HETATM    2  C   LIG     1      15.610  34.052  17.530  1.00  0.00     0.194 A 
HETATM    3  C   LIG     1      14.932  32.796  17.130  1.00  0.00     0.029 A 
HETATM    4  C   LIG     1      14.473  31.897  18.117  1.00  0.00     0.029 A 
HETATM    5  C   LIG     1      13.831  30.708  17.725  1.00  0.00     0.016 A 
HETATM    6  C   LIG     1      13.650  30.415  16.372  1.00  0.00     0.001 A 
HETATM    7  C   LIG     1      14.104  31.302  15.396  1.00  0.00     0.001 A 
HETATM    8  C   LIG     1      14.742  32.486  15.770  1.00  0.00     0.016 A 
HETATM    9  C   LIG     1      15.805  34.366  18.965  1.00  0.00     0.029 A 
HETATM   10  C   LIG     1      16.447  35.555  19.357  1.00  0.00     0.016 A 
HETATM   11  C   LIG     1      16.628  35.848  20.711  1.00  0.00     0.001 A 
HETATM   12  C   LIG     1      16.174  34.961  21.686  1.00  0.00     0.001 A 
HETATM   13  C   LIG     1      15.535  33.777  21.312  1.00  0.00     0.016 A 
HETATM   14  C   LIG     1      15.345  33.467  19.952  1.00  0.00     0.029 A 
HETATM   15  C   LIG     1      14.668  32.211  19.552  1.00  0.00     0.194 A 
HETATM   16  O   LIG     1      14.257  31.408  20.434  1.00  0.00    -0.287 OA
ENDROOT
TORSDOF 0
ENDMDL
MODEL 20
REMARK VINA RESULT:      -4.9     17.230     18.750
REMARK  0 active torsions:
REMARK  status: ('A' for Active; 'I' for Inactive)
ROOT
HETATM    1  O   LIG     1      25.654  30.088  36.270  1.00  0.00    -0.287 OA
HETATM    2  C   LIG     1      26.825  30.098  35.801  1.00  0.00     0.194 A 
HETATM    3  C   LIG     1      27.158  29.259  34.625  1.00  0.00     0.029 A 
HETATM    4  C   LIG     1      28.469  29.271  34.099  1.00  0.00     0.029 A 
HETATM    5  C   LIG     1      28.774  28.471  32.983  1.00  0.00     0.016 A 
HETATM    6  C   LIG     1      27.790  27.671  32.396  1.00  0.00     0.001 A 
HETATM    7  C   LIG     1      26.496  27.660  32.915  1.00  0.00     0.001 A 
HETATM    8  C   LIG     1      26.179  28.449  34.023  1.00  0.00     0.016 A 
HETATM    9  C   LIG     1      27.865  30.948  36.426  1.00  0.00     0.029 A 
HETATM   10  C   LIG     1      27.560  31.749  37.542  1.00  0.00     0.016 A 
HETATM   11  C   LIG     1      28.544  32.548  38.129  1.00  0.00     0.001 A 
HETATM   12  C   LIG     1      29.838  32.560  37.611  1.00  0.00     0.001 A 
HETATM   13  C   LIG     1      30.155  31.771  36.503  1.00  0.00     0.016 A 
HETATM   14  C   LIG     1      29.176  30.960  35.901  1.00  0.00     0.029 A 
HETATM   15  C   LIG     1      29.509  30.121  34.725  1.00  0.00     0.194 A 
HETATM   16  O   LIG     1      30.680  30.132  34.255  1.00  0.00    -0.287 OA
ENDROOT
TORSDOF 0
ENDMDL
