REMARK  8 active torsions:
REMARK  status: ('A' for Active; 'I' for Inactive)
REMARK    1  A    between atoms: C_2  and  C_3 
REMARK    2  A    between atoms: C_2  and  O_16 
REMARK    3  A    between atoms: C_8  and  C_9 
REMARK    4  A    between atoms: C_9  and  O_10 
REMARK    5  A    between atoms: O_10  and  C_11 
REMARK    6  A    between atoms: C_11  and  C_12 
REMARK    7  A    between atoms: O_16  and  C_17 
REMARK    8  A    between atoms: C_17  and  C_18 
ROOT
HETATM    1  C   LIG     1       0.544  -2.138  -1.420  1.00  0.00     0.055 A 
HETATM    2  C   LIG     1       0.574  -3.217  -2.324  1.00  0.00     0.018 A 
HETATM    3  C   LIG     1      -0.592  -3.916  -2.640  1.00  0.00     0.001 A 
HETATM    4  C   LIG     1      -1.804  -3.553  -2.058  1.00  0.00     0.001 A 
HETATM    5  C   LIG     1      -1.861  -2.474  -1.175  1.00  0.00     0.018 A 
HETATM    6  C   LIG     1      -0.703  -1.741  -0.862  1.00  0.00     0.055 A 
ENDROOT
BRANCH   1   7
HETATM    7  C   LIG     1       1.829  -1.513  -1.030  1.00  0.00     0.294 C 
HETATM    8  O   LIG     1       2.782  -1.474  -1.857  1.00  0.00    -0.259 OA
BRANCH   7   9
HETATM    9  O   LIG     1       2.005  -1.026   0.272  1.00  0.00    -0.317 OA
BRANCH   9  10
HETATM   10  C   LIG     1       3.207  -0.414   0.742  1.00  0.00     0.183 C 
BRANCH  10  11
HETATM   11  C   LIG     1       3.137   1.120   0.617  1.00  0.00     0.002 C 
HETATM   12  C   LIG     1       4.306   1.767   1.370  1.00  0.00     0.011 C 
HETATM   13  C   LIG     1       3.143   1.573  -0.849  1.00  0.00     0.011 C 
ENDBRANCH  10  11
ENDBRANCH   9  10
ENDBRANCH   7   9
ENDBRANCH   1   7
BRANCH   6  14
HETATM   14  C   LIG     1      -0.856  -0.541  -0.011  1.00  0.00     0.294 C 
HETATM   15  O   LIG     1      -0.187   0.499  -0.255  1.00  0.00    -0.259 OA
BRANCH  14  16
HETATM   16  O   LIG     1      -1.788  -0.553   1.034  1.00  0.00    -0.317 OA
BRANCH  16  17
HETATM   17  C   LIG     1      -2.066   0.582   1.852  1.00  0.00     0.183 C 
BRANCH  17  18
HETATM   18  C   LIG     1      -2.927   1.613   1.099  1.00  0.00     0.002 C 
HETATM   19  C   LIG     1      -4.270   1.004   0.674  1.00  0.00     0.011 C 
HETATM   20  C   LIG     1      -3.156   2.853   1.970  1.00  0.00     0.011 C 
ENDBRANCH  17  18
ENDBRANCH  16  17
ENDBRANCH  14  16
ENDBRANCH   6  14
TORSDOF 8
