MODEL 1
REMARK VINA RESULT:      -7.8      0.000      0.000
REMARK  6 active torsions:
REMARK  status: ('A' for Active; 'I' for Inactive)
REMARK    1  A    between atoms: C_2  and  C_6 
REMARK    2  A    between atoms: C_2  and  O_3 
REMARK    3  A    between atoms: O_3  and  C_4 
REMARK    4  A    between atoms: C_11  and  C_12 
REMARK    5  A    between atoms: C_12  and  O_13 
REMARK    6  A    between atoms: O_13  and  C_14 
ROOT
HETATM    1  C   LIG     1      17.586  36.956  21.252  1.00  0.00     0.055 A 
HETATM    2  C   LIG     1      18.353  36.661  20.110  1.00  0.00     0.018 A 
HETATM    3  C   LIG     1      19.222  37.611  19.569  1.00  0.00     0.001 A 
HETATM    4  C   LIG     1      19.339  38.867  20.160  1.00  0.00     0.001 A 
HETATM    5  C   LIG     1      18.572  39.187  21.279  1.00  0.00     0.018 A 
HETATM    6  C   LIG     1      17.674  38.254  21.829  1.00  0.00     0.055 A 
ENDROOT
BRANCH   1   7
HETATM    7  C   LIG     1      16.773  35.866  21.838  1.00  0.00     0.294 C 
HETATM    8  O   LIG     1      17.237  35.157  22.771  1.00  0.00    -0.259 OA
BRANCH   7   9
HETATM    9  O   LIG     1      15.503  35.597  21.312  1.00  0.00    -0.318 OA
BRANCH   9  10
HETATM   10  C   LIG     1      14.918  34.296  21.295  1.00  0.00     0.174 C 
HETATM   11  C   LIG     1      15.545  33.439  20.203  1.00  0.00     0.034 C 
ENDBRANCH   9  10
ENDBRANCH   7   9
ENDBRANCH   1   7
BRANCH   6  12
HETATM   12  C   LIG     1      16.810  38.701  22.945  1.00  0.00     0.294 C 
HETATM   13  O   LIG     1      15.648  39.133  22.717  1.00  0.00    -0.259 OA
BRANCH  12  14
HETATM   14  O   LIG     1      17.314  38.685  24.253  1.00  0.00    -0.318 OA
BRANCH  14  15
HETATM   15  C   LIG     1      17.074  37.624  25.174  1.00  0.00     0.174 C 
HETATM   16  C   LIG     1      18.389  37.094  25.737  1.00  0.00     0.034 C 
ENDBRANCH  14  15
ENDBRANCH  12  14
ENDBRANCH   6  12
TORSDOF 6
ENDMDL
MODEL 2
REMARK VINA RESULT:      -7.7      0.078      4.246
REMARK  6 active torsions:
REMARK  status: ('A' for Active; 'I' for Inactive)
REMARK    1  A    between atoms: C_2  and  C_6 
REMARK    2  A    between atoms: C_2  and  O_3 
REMARK    3  A    between atoms: O_3  and  C_4 
REMARK    4  A    between atoms: C_11  and  C_12 
REMARK    5  A    between atoms: C_12  and  O_13 
REMARK    6  A    between atoms: O_13  and  C_14 
ROOT
HETATM    1  C   LIG     1      17.727  38.252  21.830  1.00  0.00     0.055 A 
HETATM    2  C   LIG     1      18.639  39.175  21.288  1.00  0.00     0.018 A 
HETATM    3  C   LIG     1      19.393  38.854  20.158  1.00  0.00     0.001 A 
HETATM    4  C   LIG     1      19.247  37.609  19.552  1.00  0.00     0.001 A 
HETATM    5  C   LIG     1      18.364  36.671  20.085  1.00  0.00     0.018 A 
HETATM    6  C   LIG     1      17.610  36.964  21.237  1.00  0.00     0.055 A 
ENDROOT
BRANCH   1   7
HETATM    7  C   LIG     1      16.879  38.700  22.958  1.00  0.00     0.294 C 
HETATM    8  O   LIG     1      15.706  39.112  22.749  1.00  0.00    -0.259 OA
BRANCH   7   9
HETATM    9  O   LIG     1      17.409  38.710  24.255  1.00  0.00    -0.318 OA
BRANCH   9  10
HETATM   10  C   LIG     1      17.091  37.733  25.243  1.00  0.00     0.174 C 
HETATM   11  C   LIG     1      18.347  37.002  25.700  1.00  0.00     0.034 C 
ENDBRANCH   9  10
ENDBRANCH   7   9
ENDBRANCH   1   7
BRANCH   6  12
HETATM   12  C   LIG     1      16.779  35.882  21.813  1.00  0.00     0.294 C 
HETATM   13  O   LIG     1      17.189  35.228  22.810  1.00  0.00    -0.259 OA
BRANCH  12  14
HETATM   14  O   LIG     1      15.557  35.559  21.210  1.00  0.00    -0.318 OA
BRANCH  14  15
HETATM   15  C   LIG     1      14.966  34.263  21.278  1.00  0.00     0.174 C 
HETATM   16  C   LIG     1      15.535  33.355  20.193  1.00  0.00     0.034 C 
ENDBRANCH  14  15
ENDBRANCH  12  14
ENDBRANCH   6  12
TORSDOF 6
ENDMDL
MODEL 3
REMARK VINA RESULT:      -7.3      1.416      5.060
REMARK  6 active torsions:
REMARK  status: ('A' for Active; 'I' for Inactive)
REMARK    1  A    between atoms: C_2  and  C_6 
REMARK    2  A    between atoms: C_2  and  O_3 
REMARK    3  A    between atoms: O_3  and  C_4 
REMARK    4  A    between atoms: C_11  and  C_12 
REMARK    5  A    between atoms: C_12  and  O_13 
REMARK    6  A    between atoms: O_13  and  C_14 
ROOT
HETATM    1  C   LIG     1      17.499  37.398  24.092  1.00  0.00     0.055 A 
HETATM    2  C   LIG     1      18.055  37.407  25.384  1.00  0.00     0.018 A 
HETATM    3  C   LIG     1      18.142  36.233  26.133  1.00  0.00     0.001 A 
HETATM    4  C   LIG     1      17.676  35.032  25.604  1.00  0.00     0.001 A 
HETATM    5  C   LIG     1      17.101  35.003  24.334  1.00  0.00     0.018 A 
HETATM    6  C   LIG     1      16.983  36.179  23.569  1.00  0.00     0.055 A 
ENDROOT
BRANCH   1   7
HETATM    7  C   LIG     1      17.543  38.654  23.311  1.00  0.00     0.294 C 
HETATM    8  O   LIG     1      16.545  39.424  23.285  1.00  0.00    -0.259 OA
BRANCH   7   9
HETATM    9  O   LIG     1      18.686  38.957  22.559  1.00  0.00    -0.318 OA
BRANCH   9  10
HETATM   10  C   LIG     1      18.647  39.317  21.179  1.00  0.00     0.174 C 
HETATM   11  C   LIG     1      18.741  38.077  20.298  1.00  0.00     0.034 C 
ENDBRANCH   9  10
ENDBRANCH   7   9
ENDBRANCH   1   7
BRANCH   6  12
HETATM   12  C   LIG     1      16.261  36.095  22.280  1.00  0.00     0.294 C 
HETATM   13  O   LIG     1      15.146  36.667  22.137  1.00  0.00    -0.259 OA
BRANCH  12  14
HETATM   14  O   LIG     1      16.802  35.333  21.236  1.00  0.00    -0.318 OA
BRANCH  14  15
HETATM   15  C   LIG     1      16.048  34.901  20.106  1.00  0.00     0.174 C 
HETATM   16  C   LIG     1      15.541  33.478  20.311  1.00  0.00     0.034 C 
ENDBRANCH  14  15
ENDBRANCH  12  14
ENDBRANCH   6  12
TORSDOF 6
ENDMDL
MODEL 4
REMARK VINA RESULT:      -7.0      6.214      9.388
REMARK  6 active torsions:
REMARK  status: ('A' for Active; 'I' for Inactive)
REMARK    1  A    between atoms: C_2  and  C_6 
REMARK    2  A    between atoms: C_2  and  O_3 
REMARK    3  A    between atoms: O_3  and  C_4 
REMARK    4  A    between atoms: C_11  and  C_12 
REMARK    5  A    between atoms: C_12  and  O_13 
REMARK    6  A    between atoms: O_13  and  C_14 
ROOT
HETATM    1  C   LIG     1      14.722  32.123  16.103  1.00  0.00     0.055 A 
HETATM    2  C   LIG     1      13.514  31.435  16.315  1.00  0.00     0.018 A 
HETATM    3  C   LIG     1      13.172  30.336  15.526  1.00  0.00     0.001 A 
HETATM    4  C   LIG     1      14.029  29.908  14.514  1.00  0.00     0.001 A 
HETATM    5  C   LIG     1      15.221  30.589  14.273  1.00  0.00     0.018 A 
HETATM    6  C   LIG     1      15.577  31.713  15.042  1.00  0.00     0.055 A 
ENDROOT
BRANCH   1   7
HETATM    7  C   LIG     1      15.075  33.206  17.049  1.00  0.00     0.294 C 
HETATM    8  O   LIG     1      14.810  34.407  16.771  1.00  0.00    -0.259 OA
BRANCH   7   9
HETATM    9  O   LIG     1      15.754  32.890  18.233  1.00  0.00    -0.318 OA
BRANCH   9  10
HETATM   10  C   LIG     1      15.122  32.827  19.510  1.00  0.00     0.174 C 
HETATM   11  C   LIG     1      14.895  31.378  19.925  1.00  0.00     0.034 C 
ENDBRANCH   9  10
ENDBRANCH   7   9
ENDBRANCH   1   7
BRANCH   6  12
HETATM   12  C   LIG     1      16.799  32.454  14.657  1.00  0.00     0.294 C 
HETATM   13  O   LIG     1      17.857  32.331  15.332  1.00  0.00    -0.259 OA
BRANCH  12  14
HETATM   14  O   LIG     1      16.756  33.330  13.564  1.00  0.00    -0.318 OA
BRANCH  14  15
HETATM   15  C   LIG     1      17.854  34.153  13.174  1.00  0.00     0.174 C 
HETATM   16  C   LIG     1      18.739  33.424  12.168  1.00  0.00     0.034 C 
ENDBRANCH  14  15
ENDBRANCH  12  14
ENDBRANCH   6  12
TORSDOF 6
ENDMDL
MODEL 5
REMARK VINA RESULT:      -7.0      6.237      8.872
REMARK  6 active torsions:
REMARK  status: ('A' for Active; 'I' for Inactive)
REMARK    1  A    between atoms: C_2  and  C_6 
REMARK    2  A    between atoms: C_2  and  O_3 
REMARK    3  A    between atoms: O_3  and  C_4 
REMARK    4  A    between atoms: C_11  and  C_12 
REMARK    5  A    between atoms: C_12  and  O_13 
REMARK    6  A    between atoms: O_13  and  C_14 
ROOT
HETATM    1  C   LIG     1      15.572  31.696  15.081  1.00  0.00     0.055 A 
HETATM    2  C   LIG     1      15.216  30.612  14.259  1.00  0.00     0.018 A 
HETATM    3  C   LIG     1      14.031  29.908  14.480  1.00  0.00     0.001 A 
HETATM    4  C   LIG     1      13.185  30.276  15.523  1.00  0.00     0.001 A 
HETATM    5  C   LIG     1      13.529  31.334  16.363  1.00  0.00     0.018 A 
HETATM    6  C   LIG     1      14.729  32.044  16.173  1.00  0.00     0.055 A 
ENDROOT
BRANCH   1   7
HETATM    7  C   LIG     1      16.783  32.468  14.720  1.00  0.00     0.294 C 
HETATM    8  O   LIG     1      17.832  32.367  15.411  1.00  0.00    -0.259 OA
BRANCH   7   9
HETATM    9  O   LIG     1      16.736  33.353  13.635  1.00  0.00    -0.318 OA
BRANCH   9  10
HETATM   10  C   LIG     1      17.837  34.166  13.234  1.00  0.00     0.174 C 
HETATM   11  C   LIG     1      18.733  33.414  12.257  1.00  0.00     0.034 C 
ENDBRANCH   9  10
ENDBRANCH   7   9
ENDBRANCH   1   7
BRANCH   6  12
HETATM   12  C   LIG     1      15.084  33.079  17.170  1.00  0.00     0.294 C 
HETATM   13  O   LIG     1      14.799  34.289  16.960  1.00  0.00    -0.259 OA
BRANCH  12  14
HETATM   14  O   LIG     1      15.784  32.709  18.326  1.00  0.00    -0.318 OA
BRANCH  14  15
HETATM   15  C   LIG     1      15.197  32.683  19.625  1.00  0.00     0.174 C 
HETATM   16  C   LIG     1      14.857  31.254  20.033  1.00  0.00     0.034 C 
ENDBRANCH  14  15
ENDBRANCH  12  14
ENDBRANCH   6  12
TORSDOF 6
ENDMDL
MODEL 6
REMARK VINA RESULT:      -7.0      1.878      4.399
REMARK  6 active torsions:
REMARK  status: ('A' for Active; 'I' for Inactive)
REMARK    1  A    between atoms: C_2  and  C_6 
REMARK    2  A    between atoms: C_2  and  O_3 
REMARK    3  A    between atoms: O_3  and  C_4 
REMARK    4  A    between atoms: C_11  and  C_12 
REMARK    5  A    between atoms: C_12  and  O_13 
REMARK    6  A    between atoms: O_13  and  C_14 
ROOT
HETATM    1  C   LIG     1      17.102  36.708  23.286  1.00  0.00     0.055 A 
HETATM    2  C   LIG     1      16.608  35.391  23.241  1.00  0.00     0.018 A 
HETATM    3  C   LIG     1      16.497  34.712  22.027  1.00  0.00     0.001 A 
HETATM    4  C   LIG     1      16.877  35.335  20.841  1.00  0.00     0.001 A 
HETATM    5  C   LIG     1      17.349  36.646  20.860  1.00  0.00     0.018 A 
HETATM    6  C   LIG     1      17.449  37.359  22.069  1.00  0.00     0.055 A 
ENDROOT
BRANCH   1   7
HETATM    7  C   LIG     1      17.300  37.327  24.616  1.00  0.00     0.294 C 
HETATM    8  O   LIG     1      16.450  38.135  25.076  1.00  0.00    -0.259 OA
BRANCH   7   9
HETATM    9  O   LIG     1      18.468  37.046  25.338  1.00  0.00    -0.318 OA
BRANCH   9  10
HETATM   10  C   LIG     1      18.474  36.373  26.595  1.00  0.00     0.174 C 
HETATM   11  C   LIG     1      18.332  34.868  26.400  1.00  0.00     0.034 C 
ENDBRANCH   9  10
ENDBRANCH   7   9
ENDBRANCH   1   7
BRANCH   6  12
HETATM   12  C   LIG     1      17.849  38.783  22.001  1.00  0.00     0.294 C 
HETATM   13  O   LIG     1      17.060  39.684  22.394  1.00  0.00    -0.259 OA
BRANCH  12  14
HETATM   14  O   LIG     1      19.092  39.123  21.450  1.00  0.00    -0.318 OA
BRANCH  14  15
HETATM   15  C   LIG     1      19.279  39.448  20.075  1.00  0.00     0.174 C 
HETATM   16  C   LIG     1      20.450  38.665  19.492  1.00  0.00     0.034 C 
ENDBRANCH  14  15
ENDBRANCH  12  14
ENDBRANCH   6  12
TORSDOF 6
ENDMDL
MODEL 7
REMARK VINA RESULT:      -6.4      2.406      5.059
REMARK  6 active torsions:
REMARK  status: ('A' for Active; 'I' for Inactive)
REMARK    1  A    between atoms: C_2  and  C_6 
REMARK    2  A    between atoms: C_2  and  O_3 
REMARK    3  A    between atoms: O_3  and  C_4 
REMARK    4  A    between atoms: C_11  and  C_12 
REMARK    5  A    between atoms: C_12  and  O_13 
REMARK    6  A    between atoms: O_13  and  C_14 
ROOT
HETATM    1  C   LIG     1      18.008  37.351  20.686  1.00  0.00     0.055 A 
HETATM    2  C   LIG     1      18.327  38.471  21.476  1.00  0.00     0.018 A 
HETATM    3  C   LIG     1      17.689  38.687  22.698  1.00  0.00     0.001 A 
HETATM    4  C   LIG     1      16.723  37.791  23.150  1.00  0.00     0.001 A 
HETATM    5  C   LIG     1      16.376  36.687  22.374  1.00  0.00     0.018 A 
HETATM    6  C   LIG     1      16.990  36.459  21.128  1.00  0.00     0.055 A 
ENDROOT
BRANCH   1   7
HETATM    7  C   LIG     1      18.803  37.122  19.459  1.00  0.00     0.294 C 
HETATM    8  O   LIG     1      19.767  36.310  19.467  1.00  0.00    -0.259 OA
BRANCH   7   9
HETATM    9  O   LIG     1      18.508  37.854  18.301  1.00  0.00    -0.318 OA
BRANCH   9  10
HETATM   10  C   LIG     1      19.071  39.132  18.013  1.00  0.00     0.174 C 
HETATM   11  C   LIG     1      18.692  39.581  16.607  1.00  0.00     0.034 C 
ENDBRANCH   9  10
ENDBRANCH   7   9
ENDBRANCH   1   7
BRANCH   6  12
HETATM   12  C   LIG     1      16.492  35.333  20.307  1.00  0.00     0.294 C 
HETATM   13  O   LIG     1      16.300  35.484  19.069  1.00  0.00    -0.259 OA
BRANCH  12  14
HETATM   14  O   LIG     1      16.187  34.113  20.925  1.00  0.00    -0.318 OA
BRANCH  14  15
HETATM   15  C   LIG     1      15.092  33.287  20.535  1.00  0.00     0.174 C 
HETATM   16  C   LIG     1      15.585  32.082  19.741  1.00  0.00     0.034 C 
ENDBRANCH  14  15
ENDBRANCH  12  14
ENDBRANCH   6  12
TORSDOF 6
ENDMDL
MODEL 8
REMARK VINA RESULT:      -6.4      2.483      4.381
REMARK  6 active torsions:
REMARK  status: ('A' for Active; 'I' for Inactive)
REMARK    1  A    between atoms: C_2  and  C_6 
REMARK    2  A    between atoms: C_2  and  O_3 
REMARK    3  A    between atoms: O_3  and  C_4 
REMARK    4  A    between atoms: C_11  and  C_12 
REMARK    5  A    between atoms: C_12  and  O_13 
REMARK    6  A    between atoms: O_13  and  C_14 
ROOT
HETATM    1  C   LIG     1      16.920  36.360  21.027  1.00  0.00     0.055 A 
HETATM    2  C   LIG     1      16.255  36.551  22.252  1.00  0.00     0.018 A 
HETATM    3  C   LIG     1      16.550  37.649  23.061  1.00  0.00     0.001 A 
HETATM    4  C   LIG     1      17.512  38.573  22.661  1.00  0.00     0.001 A 
HETATM    5  C   LIG     1      18.199  38.393  21.461  1.00  0.00     0.018 A 
HETATM    6  C   LIG     1      17.934  37.282  20.639  1.00  0.00     0.055 A 
ENDROOT
BRANCH   1   7
HETATM    7  C   LIG     1      16.478  35.240  20.167  1.00  0.00     0.294 C 
HETATM    8  O   LIG     1      16.254  35.428  18.941  1.00  0.00    -0.259 OA
BRANCH   7   9
HETATM    9  O   LIG     1      16.261  33.979  20.738  1.00  0.00    -0.318 OA
BRANCH   9  10
HETATM   10  C   LIG     1      15.110  33.181  20.469  1.00  0.00     0.174 C 
HETATM   11  C   LIG     1      15.469  32.012  19.559  1.00  0.00     0.034 C 
ENDBRANCH   9  10
ENDBRANCH   7   9
ENDBRANCH   1   7
BRANCH   6  12
HETATM   12  C   LIG     1      18.780  37.093  19.439  1.00  0.00     0.294 C 
HETATM   13  O   LIG     1      19.759  36.299  19.470  1.00  0.00    -0.259 OA
BRANCH  12  14
HETATM   14  O   LIG     1      18.513  37.841  18.285  1.00  0.00    -0.318 OA
BRANCH  14  15
HETATM   15  C   LIG     1      19.040  39.145  18.055  1.00  0.00     0.174 C 
HETATM   16  C   LIG     1      18.716  39.614  16.641  1.00  0.00     0.034 C 
ENDBRANCH  14  15
ENDBRANCH  12  14
ENDBRANCH   6  12
TORSDOF 6
ENDMDL
MODEL 9
REMARK VINA RESULT:      -6.1      1.829      3.986
REMARK  6 active torsions:
REMARK  status: ('A' for Active; 'I' for Inactive)
REMARK    1  A    between atoms: C_2  and  C_6 
REMARK    2  A    between atoms: C_2  and  O_3 
REMARK    3  A    between atoms: O_3  and  C_4 
REMARK    4  A    between atoms: C_11  and  C_12 
REMARK    5  A    between atoms: C_12  and  O_13 
REMARK    6  A    between atoms: O_13  and  C_14 
ROOT
HETATM    1  C   LIG     1      16.928  37.379  22.239  1.00  0.00     0.055 A 
HETATM    2  C   LIG     1      16.575  36.700  21.059  1.00  0.00     0.018 A 
HETATM    3  C   LIG     1      16.462  35.309  21.042  1.00  0.00     0.001 A 
HETATM    4  C   LIG     1      16.697  34.575  22.202  1.00  0.00     0.001 A 
HETATM    5  C   LIG     1      17.068  35.226  23.378  1.00  0.00     0.018 A 
HETATM    6  C   LIG     1      17.210  36.625  23.413  1.00  0.00     0.055 A 
ENDROOT
BRANCH   1   7
HETATM    7  C   LIG     1      16.918  38.859  22.215  1.00  0.00     0.294 C 
HETATM    8  O   LIG     1      15.983  39.499  22.767  1.00  0.00    -0.259 OA
BRANCH   7   9
HETATM    9  O   LIG     1      17.930  39.542  21.528  1.00  0.00    -0.318 OA
BRANCH   9  10
HETATM   10  C   LIG     1      19.225  38.996  21.288  1.00  0.00     0.174 C 
HETATM   11  C   LIG     1      19.534  38.981  19.796  1.00  0.00     0.034 C 
ENDBRANCH   9  10
ENDBRANCH   7   9
ENDBRANCH   1   7
BRANCH   6  12
HETATM   12  C   LIG     1      17.717  37.237  24.662  1.00  0.00     0.294 C 
HETATM   13  O   LIG     1      18.555  38.179  24.615  1.00  0.00    -0.259 OA
BRANCH  12  14
HETATM   14  O   LIG     1      17.297  36.727  25.898  1.00  0.00    -0.318 OA
BRANCH  14  15
HETATM   15  C   LIG     1      18.184  36.153  26.854  1.00  0.00     0.174 C 
HETATM   16  C   LIG     1      18.581  34.741  26.438  1.00  0.00     0.034 C 
ENDBRANCH  14  15
ENDBRANCH  12  14
ENDBRANCH   6  12
TORSDOF 6
ENDMDL
MODEL 10
REMARK VINA RESULT:      -6.0      8.064     10.181
REMARK  6 active torsions:
REMARK  status: ('A' for Active; 'I' for Inactive)
REMARK    1  A    between atoms: C_2  and  C_6 
REMARK    2  A    between atoms: C_2  and  O_3 
REMARK    3  A    between atoms: O_3  and  C_4 
REMARK    4  A    between atoms: C_11  and  C_12 
REMARK    5  A    between atoms: C_12  and  O_13 
REMARK    6  A    between atoms: O_13  and  C_14 
ROOT
HETATM    1  C   LIG     1      14.869  30.979  15.151  1.00  0.00     0.055 A 
HETATM    2  C   LIG     1      13.681  30.616  15.811  1.00  0.00     0.018 A 
HETATM    3  C   LIG     1      13.130  31.438  16.795  1.00  0.00     0.001 A 
HETATM    4  C   LIG     1      13.756  32.635  17.135  1.00  0.00     0.001 A 
HETATM    5  C   LIG     1      14.945  33.005  16.509  1.00  0.00     0.018 A 
HETATM    6  C   LIG     1      15.531  32.181  15.529  1.00  0.00     0.055 A 
ENDROOT
BRANCH   1   7
HETATM    7  C   LIG     1      15.334  30.119  14.040  1.00  0.00     0.294 C 
HETATM    8  O   LIG     1      15.385  30.569  12.864  1.00  0.00    -0.259 OA
BRANCH   7   9
HETATM    9  O   LIG     1      15.669  28.783  14.299  1.00  0.00    -0.318 OA
BRANCH   9  10
HETATM   10  C   LIG     1      15.178  27.686  13.533  1.00  0.00     0.174 C 
HETATM   11  C   LIG     1      13.671  27.538  13.711  1.00  0.00     0.034 C 
ENDBRANCH   9  10
ENDBRANCH   7   9
ENDBRANCH   1   7
BRANCH   6  12
HETATM   12  C   LIG     1      16.851  32.580  14.990  1.00  0.00     0.294 C 
HETATM   13  O   LIG     1      17.911  32.155  15.525  1.00  0.00    -0.259 OA
BRANCH  12  14
HETATM   14  O   LIG     1      16.912  33.473  13.913  1.00  0.00    -0.318 OA
BRANCH  14  15
HETATM   15  C   LIG     1      18.113  34.117  13.493  1.00  0.00     0.174 C 
HETATM   16  C   LIG     1      18.708  33.407  12.282  1.00  0.00     0.034 C 
ENDBRANCH  14  15
ENDBRANCH  12  14
ENDBRANCH   6  12
TORSDOF 6
ENDMDL
MODEL 11
REMARK VINA RESULT:      -5.9      1.675      4.698
REMARK  6 active torsions:
REMARK  status: ('A' for Active; 'I' for Inactive)
REMARK    1  A    between atoms: C_2  and  C_6 
REMARK    2  A    between atoms: C_2  and  O_3 
REMARK    3  A    between atoms: O_3  and  C_4 
REMARK    4  A    between atoms: C_11  and  C_12 
REMARK    5  A    between atoms: C_12  and  O_13 
REMARK    6  A    between atoms: O_13  and  C_14 
ROOT
HETATM    1  C   LIG     1      16.060  37.087  22.111  1.00  0.00     0.055 A 
HETATM    2  C   LIG     1      14.966  36.205  22.051  1.00  0.00     0.018 A 
HETATM    3  C   LIG     1      14.991  35.093  21.208  1.00  0.00     0.001 A 
HETATM    4  C   LIG     1      16.107  34.845  20.413  1.00  0.00     0.001 A 
HETATM    5  C   LIG     1      17.194  35.717  20.440  1.00  0.00     0.018 A 
HETATM    6  C   LIG     1      17.182  36.857  21.267  1.00  0.00     0.055 A 
ENDROOT
BRANCH   1   7
HETATM    7  C   LIG     1      16.014  38.179  23.109  1.00  0.00     0.294 C 
HETATM    8  O   LIG     1      15.700  39.349  22.760  1.00  0.00    -0.259 OA
BRANCH   7   9
HETATM    9  O   LIG     1      16.372  37.913  24.437  1.00  0.00    -0.318 OA
BRANCH   9  10
HETATM   10  C   LIG     1      17.195  36.815  24.825  1.00  0.00     0.174 C 
HETATM   11  C   LIG     1      17.993  37.158  26.078  1.00  0.00     0.034 C 
ENDBRANCH   9  10
ENDBRANCH   7   9
ENDBRANCH   1   7
BRANCH   6  12
HETATM   12  C   LIG     1      18.319  37.799  21.160  1.00  0.00     0.294 C 
HETATM   13  O   LIG     1      18.503  38.677  22.047  1.00  0.00    -0.259 OA
BRANCH  12  14
HETATM   14  O   LIG     1      19.160  37.739  20.041  1.00  0.00    -0.318 OA
BRANCH  14  15
HETATM   15  C   LIG     1      19.653  38.894  19.366  1.00  0.00     0.174 C 
HETATM   16  C   LIG     1      18.868  39.142  18.082  1.00  0.00     0.034 C 
ENDBRANCH  14  15
ENDBRANCH  12  14
ENDBRANCH   6  12
TORSDOF 6
ENDMDL
MODEL 12
REMARK VINA RESULT:      -5.6      6.051      9.668
REMARK  6 active torsions:
REMARK  status: ('A' for Active; 'I' for Inactive)
REMARK    1  A    between atoms: C_2  and  C_6 
REMARK    2  A    between atoms: C_2  and  O_3 
REMARK    3  A    between atoms: O_3  and  C_4 
REMARK    4  A    between atoms: C_11  and  C_12 
REMARK    5  A    between atoms: C_12  and  O_13 
REMARK    6  A    between atoms: O_13  and  C_14 
ROOT
HETATM    1  C   LIG     1      14.283  31.232  15.825  1.00  0.00     0.055 A 
HETATM    2  C   LIG     1      13.184  30.375  15.636  1.00  0.00     0.018 A 
HETATM    3  C   LIG     1      13.173  29.447  14.594  1.00  0.00     0.001 A 
HETATM    4  C   LIG     1      14.259  29.360  13.725  1.00  0.00     0.001 A 
HETATM    5  C   LIG     1      15.350  30.214  13.881  1.00  0.00     0.018 A 
HETATM    6  C   LIG     1      15.373  31.172  14.912  1.00  0.00     0.055 A 
ENDROOT
BRANCH   1   7
HETATM    7  C   LIG     1      14.277  32.111  17.016  1.00  0.00     0.294 C 
HETATM    8  O   LIG     1      14.295  31.614  18.175  1.00  0.00    -0.259 OA
BRANCH   7   9
HETATM    9  O   LIG     1      14.200  33.500  16.846  1.00  0.00    -0.318 OA
BRANCH   9  10
HETATM   10  C   LIG     1      15.273  34.390  17.145  1.00  0.00     0.174 C 
HETATM   11  C   LIG     1      15.358  34.644  18.645  1.00  0.00     0.034 C 
ENDBRANCH   9  10
ENDBRANCH   7   9
ENDBRANCH   1   7
BRANCH   6  12
HETATM   12  C   LIG     1      16.509  32.120  14.947  1.00  0.00     0.294 C 
HETATM   13  O   LIG     1      17.469  31.933  15.744  1.00  0.00    -0.259 OA
BRANCH  12  14
HETATM   14  O   LIG     1      16.486  33.254  14.124  1.00  0.00    -0.318 OA
BRANCH  14  15
HETATM   15  C   LIG     1      17.632  34.063  13.869  1.00  0.00     0.174 C 
HETATM   16  C   LIG     1      18.406  33.534  12.666  1.00  0.00     0.034 C 
ENDBRANCH  14  15
ENDBRANCH  12  14
ENDBRANCH   6  12
TORSDOF 6
ENDMDL
MODEL 13
REMARK VINA RESULT:      -4.9      2.300      4.536
REMARK  6 active torsions:
REMARK  status: ('A' for Active; 'I' for Inactive)
REMARK    1  A    between atoms: C_2  and  C_6 
REMARK    2  A    between atoms: C_2  and  O_3 
REMARK    3  A    between atoms: O_3  and  C_4 
REMARK    4  A    between atoms: C_11  and  C_12 
REMARK    5  A    between atoms: C_12  and  O_13 
REMARK    6  A    between atoms: O_13  and  C_14 
ROOT
HETATM    1  C   LIG     1      17.381  37.252  21.415  1.00  0.00     0.055 A 
HETATM    2  C   LIG     1      16.971  37.865  22.613  1.00  0.00     0.018 A 
HETATM    3  C   LIG     1      17.426  39.140  22.954  1.00  0.00     0.001 A 
HETATM    4  C   LIG     1      18.295  39.822  22.105  1.00  0.00     0.001 A 
HETATM    5  C   LIG     1      18.731  39.224  20.924  1.00  0.00     0.018 A 
HETATM    6  C   LIG     1      18.303  37.931  20.570  1.00  0.00     0.055 A 
ENDROOT
BRANCH   1   7
HETATM    7  C   LIG     1      16.772  35.950  21.062  1.00  0.00     0.294 C 
HETATM    8  O   LIG     1      16.446  35.702  19.869  1.00  0.00    -0.259 OA
BRANCH   7   9
HETATM    9  O   LIG     1      16.513  35.015  22.072  1.00  0.00    -0.318 OA
BRANCH   9  10
HETATM   10  C   LIG     1      17.482  34.609  23.037  1.00  0.00     0.174 C 
HETATM   11  C   LIG     1      17.029  34.984  24.443  1.00  0.00     0.034 C 
ENDBRANCH   9  10
ENDBRANCH   7   9
ENDBRANCH   1   7
BRANCH   6  12
HETATM   12  C   LIG     1      18.895  37.314  19.361  1.00  0.00     0.294 C 
HETATM   13  O   LIG     1      19.677  36.330  19.467  1.00  0.00    -0.259 OA
BRANCH  12  14
HETATM   14  O   LIG     1      18.618  37.864  18.102  1.00  0.00    -0.318 OA
BRANCH  14  15
HETATM   15  C   LIG     1      18.971  39.194  17.731  1.00  0.00     0.174 C 
HETATM   16  C   LIG     1      18.526  39.490  16.303  1.00  0.00     0.034 C 
ENDBRANCH  14  15
ENDBRANCH  12  14
ENDBRANCH   6  12
TORSDOF 6
ENDMDL
MODEL 14
REMARK VINA RESULT:      -4.8      6.096      8.555
REMARK  6 active torsions:
REMARK  status: ('A' for Active; 'I' for Inactive)
REMARK    1  A    between atoms: C_2  and  C_6 
REMARK    2  A    between atoms: C_2  and  O_3 
REMARK    3  A    between atoms: O_3  and  C_4 
REMARK    4  A    between atoms: C_11  and  C_12 
REMARK    5  A    between atoms: C_12  and  O_13 
REMARK    6  A    between atoms: O_13  and  C_14 
ROOT
HETATM    1  C   LIG     1      15.290  31.725  14.802  1.00  0.00     0.055 A 
HETATM    2  C   LIG     1      15.778  31.534  13.496  1.00  0.00     0.018 A 
HETATM    3  C   LIG     1      16.841  32.298  13.013  1.00  0.00     0.001 A 
HETATM    4  C   LIG     1      17.433  33.264  13.824  1.00  0.00     0.001 A 
HETATM    5  C   LIG     1      16.952  33.485  15.114  1.00  0.00     0.018 A 
HETATM    6  C   LIG     1      15.867  32.741  15.615  1.00  0.00     0.055 A 
ENDROOT
BRANCH   1   7
HETATM    7  C   LIG     1      14.238  30.804  15.288  1.00  0.00     0.294 C 
HETATM    8  O   LIG     1      13.401  31.190  16.147  1.00  0.00    -0.259 OA
BRANCH   7   9
HETATM    9  O   LIG     1      14.214  29.482  14.824  1.00  0.00    -0.318 OA
BRANCH   9  10
HETATM   10  C   LIG     1      13.130  28.929  14.081  1.00  0.00     0.174 C 
HETATM   11  C   LIG     1      13.412  27.476  13.720  1.00  0.00     0.034 C 
ENDBRANCH   9  10
ENDBRANCH   7   9
ENDBRANCH   1   7
BRANCH   6  12
HETATM   12  C   LIG     1      15.335  33.107  16.947  1.00  0.00     0.294 C 
HETATM   13  O   LIG     1      14.530  34.071  17.068  1.00  0.00    -0.259 OA
BRANCH  12  14
HETATM   14  O   LIG     1      15.773  32.406  18.079  1.00  0.00    -0.318 OA
BRANCH  14  15
HETATM   15  C   LIG     1      15.039  32.349  19.299  1.00  0.00     0.174 C 
HETATM   16  C   LIG     1      15.540  33.406  20.278  1.00  0.00     0.034 C 
ENDBRANCH  14  15
ENDBRANCH  12  14
ENDBRANCH   6  12
TORSDOF 6
ENDMDL
