MODEL 1
REMARK VINA RESULT:      -9.2      0.000      0.000
REMARK  8 active torsions:
REMARK  status: ('A' for Active; 'I' for Inactive)
REMARK    1  A    between atoms: C_2  and  C_3 
REMARK    2  A    between atoms: C_2  and  O_16 
REMARK    3  A    between atoms: C_8  and  C_9 
REMARK    4  A    between atoms: C_9  and  O_10 
REMARK    5  A    between atoms: O_10  and  C_11 
REMARK    6  A    between atoms: C_11  and  C_12 
REMARK    7  A    between atoms: O_16  and  C_17 
REMARK    8  A    between atoms: C_17  and  C_18 
ROOT
HETATM    1  C   LIG     1      17.828  36.769  20.870  1.00  0.00     0.055 A 
HETATM    2  C   LIG     1      18.686  36.746  19.753  1.00  0.00     0.018 A 
HETATM    3  C   LIG     1      19.328  37.907  19.322  1.00  0.00     0.001 A 
HETATM    4  C   LIG     1      19.123  39.110  19.994  1.00  0.00     0.001 A 
HETATM    5  C   LIG     1      18.294  39.152  21.115  1.00  0.00     0.018 A 
HETATM    6  C   LIG     1      17.657  37.989  21.581  1.00  0.00     0.055 A 
ENDROOT
BRANCH   1   7
HETATM    7  C   LIG     1      17.081  35.536  21.207  1.00  0.00     0.294 C 
HETATM    8  O   LIG     1      17.218  35.013  22.348  1.00  0.00    -0.259 OA
BRANCH   7   9
HETATM    9  O   LIG     1      16.276  34.918  20.240  1.00  0.00    -0.317 OA
BRANCH   9  10
HETATM   10  C   LIG     1      15.359  33.859  20.521  1.00  0.00     0.183 C 
BRANCH  10  11
HETATM   11  C   LIG     1      15.581  32.664  19.574  1.00  0.00     0.002 C 
HETATM   12  C   LIG     1      14.855  31.423  20.109  1.00  0.00     0.011 C 
HETATM   13  C   LIG     1      15.110  32.972  18.147  1.00  0.00     0.011 C 
ENDBRANCH  10  11
ENDBRANCH   9  10
ENDBRANCH   7   9
ENDBRANCH   1   7
BRANCH   6  14
HETATM   14  C   LIG     1      16.886  38.083  22.840  1.00  0.00     0.294 C 
HETATM   15  O   LIG     1      15.633  38.219  22.808  1.00  0.00    -0.259 OA
BRANCH  14  16
HETATM   16  O   LIG     1      17.553  37.965  24.065  1.00  0.00    -0.317 OA
BRANCH  16  17
HETATM   17  C   LIG     1      17.038  37.227  25.172  1.00  0.00     0.183 C 
BRANCH  17  18
HETATM   18  C   LIG     1      18.013  36.116  25.603  1.00  0.00     0.002 C 
HETATM   19  C   LIG     1      18.784  36.518  26.867  1.00  0.00     0.011 C 
HETATM   20  C   LIG     1      17.256  34.804  25.835  1.00  0.00     0.011 C 
ENDBRANCH  17  18
ENDBRANCH  16  17
ENDBRANCH  14  16
ENDBRANCH   6  14
TORSDOF 8
ENDMDL
MODEL 2
REMARK VINA RESULT:      -9.1      0.070      5.512
REMARK  8 active torsions:
REMARK  status: ('A' for Active; 'I' for Inactive)
REMARK    1  A    between atoms: C_2  and  C_3 
REMARK    2  A    between atoms: C_2  and  O_16 
REMARK    3  A    between atoms: C_8  and  C_9 
REMARK    4  A    between atoms: C_9  and  O_10 
REMARK    5  A    between atoms: O_10  and  C_11 
REMARK    6  A    between atoms: C_11  and  C_12 
REMARK    7  A    between atoms: O_16  and  C_17 
REMARK    8  A    between atoms: C_17  and  C_18 
ROOT
HETATM    1  C   LIG     1      17.617  37.952  21.606  1.00  0.00     0.055 A 
HETATM    2  C   LIG     1      18.241  39.128  21.146  1.00  0.00     0.018 A 
HETATM    3  C   LIG     1      19.068  39.104  20.022  1.00  0.00     0.001 A 
HETATM    4  C   LIG     1      19.290  37.909  19.343  1.00  0.00     0.001 A 
HETATM    5  C   LIG     1      18.666  36.735  19.769  1.00  0.00     0.018 A 
HETATM    6  C   LIG     1      17.809  36.742  20.883  1.00  0.00     0.055 A 
ENDROOT
BRANCH   1   7
HETATM    7  C   LIG     1      16.850  38.013  22.872  1.00  0.00     0.294 C 
HETATM    8  O   LIG     1      15.592  38.111  22.836  1.00  0.00    -0.259 OA
BRANCH   7   9
HETATM    9  O   LIG     1      17.524  38.028  24.100  1.00  0.00    -0.317 OA
BRANCH   9  10
HETATM   10  C   LIG     1      17.078  37.334  25.266  1.00  0.00     0.183 C 
BRANCH  10  11
HETATM   11  C   LIG     1      18.012  36.156  25.604  1.00  0.00     0.002 C 
HETATM   12  C   LIG     1      18.786  36.447  26.896  1.00  0.00     0.011 C 
HETATM   13  C   LIG     1      17.239  34.838  25.742  1.00  0.00     0.011 C 
ENDBRANCH  10  11
ENDBRANCH   9  10
ENDBRANCH   7   9
ENDBRANCH   1   7
BRANCH   6  14
HETATM   14  C   LIG     1      17.093  35.490  21.209  1.00  0.00     0.294 C 
HETATM   15  O   LIG     1      17.167  35.000  22.368  1.00  0.00    -0.259 OA
BRANCH  14  16
HETATM   16  O   LIG     1      16.290  34.883  20.235  1.00  0.00    -0.317 OA
BRANCH  16  17
HETATM   17  C   LIG     1      15.365  33.836  20.521  1.00  0.00     0.183 C 
BRANCH  17  18
HETATM   18  C   LIG     1      15.596  32.623  19.601  1.00  0.00     0.002 C 
HETATM   19  C   LIG     1      14.853  31.386  20.123  1.00  0.00     0.011 C 
HETATM   20  C   LIG     1      15.150  32.947  18.171  1.00  0.00     0.011 C 
ENDBRANCH  17  18
ENDBRANCH  16  17
ENDBRANCH  14  16
ENDBRANCH   6  14
TORSDOF 8
ENDMDL
MODEL 3
REMARK VINA RESULT:      -7.8      4.446      7.963
REMARK  8 active torsions:
REMARK  status: ('A' for Active; 'I' for Inactive)
REMARK    1  A    between atoms: C_2  and  C_3 
REMARK    2  A    between atoms: C_2  and  O_16 
REMARK    3  A    between atoms: C_8  and  C_9 
REMARK    4  A    between atoms: C_9  and  O_10 
REMARK    5  A    between atoms: O_10  and  C_11 
REMARK    6  A    between atoms: C_11  and  C_12 
REMARK    7  A    between atoms: O_16  and  C_17 
REMARK    8  A    between atoms: C_17  and  C_18 
ROOT
HETATM    1  C   LIG     1      15.495  31.931  15.212  1.00  0.00     0.055 A 
HETATM    2  C   LIG     1      14.970  30.805  14.550  1.00  0.00     0.018 A 
HETATM    3  C   LIG     1      13.820  30.171  15.022  1.00  0.00     0.001 A 
HETATM    4  C   LIG     1      13.178  30.647  16.163  1.00  0.00     0.001 A 
HETATM    5  C   LIG     1      13.670  31.773  16.824  1.00  0.00     0.018 A 
HETATM    6  C   LIG     1      14.812  32.441  16.351  1.00  0.00     0.055 A 
ENDROOT
BRANCH   1   7
HETATM    7  C   LIG     1      16.784  32.487  14.738  1.00  0.00     0.294 C 
HETATM    8  O   LIG     1      17.839  32.272  15.397  1.00  0.00    -0.259 OA
BRANCH   7   9
HETATM    9  O   LIG     1      16.818  33.301  13.598  1.00  0.00    -0.317 OA
BRANCH   9  10
HETATM   10  C   LIG     1      17.821  34.287  13.348  1.00  0.00     0.183 C 
BRANCH  10  11
HETATM   11  C   LIG     1      18.810  33.814  12.266  1.00  0.00     0.002 C 
HETATM   12  C   LIG     1      18.729  34.730  11.038  1.00  0.00     0.011 C 
HETATM   13  C   LIG     1      20.251  33.769  12.791  1.00  0.00     0.011 C 
ENDBRANCH  10  11
ENDBRANCH   9  10
ENDBRANCH   7   9
ENDBRANCH   1   7
BRANCH   6  14
HETATM   14  C   LIG     1      15.210  33.693  17.031  1.00  0.00     0.294 C 
HETATM   15  O   LIG     1      15.217  34.784  16.399  1.00  0.00    -0.259 OA
BRANCH  14  16
HETATM   16  O   LIG     1      15.526  33.665  18.395  1.00  0.00    -0.317 OA
BRANCH  16  17
HETATM   17  C   LIG     1      15.699  34.839  19.186  1.00  0.00     0.183 C 
BRANCH  17  18
HETATM   18  C   LIG     1      16.070  34.482  20.638  1.00  0.00     0.002 C 
HETATM   19  C   LIG     1      16.958  35.567  21.262  1.00  0.00     0.011 C 
HETATM   20  C   LIG     1      14.804  34.281  21.477  1.00  0.00     0.011 C 
ENDBRANCH  17  18
ENDBRANCH  16  17
ENDBRANCH  14  16
ENDBRANCH   6  14
TORSDOF 8
ENDMDL
MODEL 4
REMARK VINA RESULT:      -7.8      4.469      9.363
REMARK  8 active torsions:
REMARK  status: ('A' for Active; 'I' for Inactive)
REMARK    1  A    between atoms: C_2  and  C_3 
REMARK    2  A    between atoms: C_2  and  O_16 
REMARK    3  A    between atoms: C_8  and  C_9 
REMARK    4  A    between atoms: C_9  and  O_10 
REMARK    5  A    between atoms: O_10  and  C_11 
REMARK    6  A    between atoms: C_11  and  C_12 
REMARK    7  A    between atoms: O_16  and  C_17 
REMARK    8  A    between atoms: C_17  and  C_18 
ROOT
HETATM    1  C   LIG     1      14.826  32.472  16.326  1.00  0.00     0.055 A 
HETATM    2  C   LIG     1      13.681  31.786  16.774  1.00  0.00     0.018 A 
HETATM    3  C   LIG     1      13.215  30.657  16.099  1.00  0.00     0.001 A 
HETATM    4  C   LIG     1      13.880  30.197  14.965  1.00  0.00     0.001 A 
HETATM    5  C   LIG     1      15.029  30.849  14.515  1.00  0.00     0.018 A 
HETATM    6  C   LIG     1      15.529  31.973  15.195  1.00  0.00     0.055 A 
ENDROOT
BRANCH   1   7
HETATM    7  C   LIG     1      15.202  33.731  17.009  1.00  0.00     0.294 C 
HETATM    8  O   LIG     1      15.240  34.810  16.355  1.00  0.00    -0.259 OA
BRANCH   7   9
HETATM    9  O   LIG     1      15.576  33.711  18.359  1.00  0.00    -0.317 OA
BRANCH   9  10
HETATM   10  C   LIG     1      15.619  34.869  19.195  1.00  0.00     0.183 C 
BRANCH  10  11
HETATM   11  C   LIG     1      16.069  34.509  20.624  1.00  0.00     0.002 C 
HETATM   12  C   LIG     1      17.029  35.577  21.162  1.00  0.00     0.011 C 
HETATM   13  C   LIG     1      14.875  34.350  21.574  1.00  0.00     0.011 C 
ENDBRANCH  10  11
ENDBRANCH   9  10
ENDBRANCH   7   9
ENDBRANCH   1   7
BRANCH   6  14
HETATM   14  C   LIG     1      16.813  32.544  14.731  1.00  0.00     0.294 C 
HETATM   15  O   LIG     1      17.877  32.307  15.363  1.00  0.00    -0.259 OA
BRANCH  14  16
HETATM   16  O   LIG     1      16.843  33.304  13.556  1.00  0.00    -0.317 OA
BRANCH  16  17
HETATM   17  C   LIG     1      17.833  34.295  13.286  1.00  0.00     0.183 C 
BRANCH  17  18
HETATM   18  C   LIG     1      18.841  33.801  12.233  1.00  0.00     0.002 C 
HETATM   19  C   LIG     1      18.798  34.679  10.974  1.00  0.00     0.011 C 
HETATM   20  C   LIG     1      20.257  33.780  12.819  1.00  0.00     0.011 C 
ENDBRANCH  17  18
ENDBRANCH  16  17
ENDBRANCH  14  16
ENDBRANCH   6  14
TORSDOF 8
ENDMDL
MODEL 5
REMARK VINA RESULT:      -6.6      2.422      5.195
REMARK  8 active torsions:
REMARK  status: ('A' for Active; 'I' for Inactive)
REMARK    1  A    between atoms: C_2  and  C_3 
REMARK    2  A    between atoms: C_2  and  O_16 
REMARK    3  A    between atoms: C_8  and  C_9 
REMARK    4  A    between atoms: C_9  and  O_10 
REMARK    5  A    between atoms: O_10  and  C_11 
REMARK    6  A    between atoms: C_11  and  C_12 
REMARK    7  A    between atoms: O_16  and  C_17 
REMARK    8  A    between atoms: C_17  and  C_18 
ROOT
HETATM    1  C   LIG     1      16.932  36.640  21.042  1.00  0.00     0.055 A 
HETATM    2  C   LIG     1      16.165  36.985  22.171  1.00  0.00     0.018 A 
HETATM    3  C   LIG     1      16.551  38.039  23.001  1.00  0.00     0.001 A 
HETATM    4  C   LIG     1      17.707  38.763  22.719  1.00  0.00     0.001 A 
HETATM    5  C   LIG     1      18.471  38.451  21.594  1.00  0.00     0.018 A 
HETATM    6  C   LIG     1      18.088  37.409  20.732  1.00  0.00     0.055 A 
ENDROOT
BRANCH   1   7
HETATM    7  C   LIG     1      16.542  35.437  20.270  1.00  0.00     0.294 C 
HETATM    8  O   LIG     1      16.438  35.507  19.014  1.00  0.00    -0.259 OA
BRANCH   7   9
HETATM    9  O   LIG     1      16.229  34.246  20.938  1.00  0.00    -0.317 OA
BRANCH   9  10
HETATM   10  C   LIG     1      15.100  33.427  20.627  1.00  0.00     0.183 C 
BRANCH  10  11
HETATM   11  C   LIG     1      15.501  32.249  19.719  1.00  0.00     0.002 C 
HETATM   12  C   LIG     1      14.896  30.943  20.248  1.00  0.00     0.011 C 
HETATM   13  C   LIG     1      15.066  32.477  18.265  1.00  0.00     0.011 C 
ENDBRANCH  10  11
ENDBRANCH   9  10
ENDBRANCH   7   9
ENDBRANCH   1   7
BRANCH   6  14
HETATM   14  C   LIG     1      18.878  37.209  19.499  1.00  0.00     0.294 C 
HETATM   15  O   LIG     1      19.749  36.299  19.444  1.00  0.00    -0.259 OA
BRANCH  14  16
HETATM   16  O   LIG     1      18.614  38.003  18.376  1.00  0.00    -0.317 OA
BRANCH  16  17
HETATM   17  C   LIG     1      18.861  39.407  18.331  1.00  0.00     0.183 C 
BRANCH  17  18
HETATM   18  C   LIG     1      18.914  39.916  16.878  1.00  0.00     0.002 C 
HETATM   19  C   LIG     1      18.235  38.926  15.922  1.00  0.00     0.011 C 
HETATM   20  C   LIG     1      18.255  41.296  16.773  1.00  0.00     0.011 C 
ENDBRANCH  17  18
ENDBRANCH  16  17
ENDBRANCH  14  16
ENDBRANCH   6  14
TORSDOF 8
ENDMDL
MODEL 6
REMARK VINA RESULT:      -6.2      7.694     10.448
REMARK  8 active torsions:
REMARK  status: ('A' for Active; 'I' for Inactive)
REMARK    1  A    between atoms: C_2  and  C_3 
REMARK    2  A    between atoms: C_2  and  O_16 
REMARK    3  A    between atoms: C_8  and  C_9 
REMARK    4  A    between atoms: C_9  and  O_10 
REMARK    5  A    between atoms: O_10  and  C_11 
REMARK    6  A    between atoms: C_11  and  C_12 
REMARK    7  A    between atoms: O_16  and  C_17 
REMARK    8  A    between atoms: C_17  and  C_18 
ROOT
HETATM    1  C   LIG     1      14.471  30.760  15.411  1.00  0.00     0.055 A 
HETATM    2  C   LIG     1      13.620  30.756  16.532  1.00  0.00     0.018 A 
HETATM    3  C   LIG     1      13.668  31.788  17.470  1.00  0.00     0.001 A 
HETATM    4  C   LIG     1      14.568  32.838  17.307  1.00  0.00     0.001 A 
HETATM    5  C   LIG     1      15.408  32.874  16.193  1.00  0.00     0.018 A 
HETATM    6  C   LIG     1      15.358  31.857  15.224  1.00  0.00     0.055 A 
ENDROOT
BRANCH   1   7
HETATM    7  C   LIG     1      14.461  29.580  14.516  1.00  0.00     0.294 C 
HETATM    8  O   LIG     1      15.551  29.040  14.180  1.00  0.00    -0.259 OA
BRANCH   7   9
HETATM    9  O   LIG     1      13.249  29.107  13.994  1.00  0.00    -0.317 OA
BRANCH   9  10
HETATM   10  C   LIG     1      12.951  27.726  13.790  1.00  0.00     0.183 C 
BRANCH  10  11
HETATM   11  C   LIG     1      11.839  27.545  12.739  1.00  0.00     0.002 C 
HETATM   12  C   LIG     1      11.334  26.097  12.745  1.00  0.00     0.011 C 
HETATM   13  C   LIG     1      10.669  28.509  12.976  1.00  0.00     0.011 C 
ENDBRANCH  10  11
ENDBRANCH   9  10
ENDBRANCH   7   9
ENDBRANCH   1   7
BRANCH   6  14
HETATM   14  C   LIG     1      16.192  32.018  14.013  1.00  0.00     0.294 C 
HETATM   15  O   LIG     1      15.683  31.877  12.869  1.00  0.00    -0.259 OA
BRANCH  14  16
HETATM   16  O   LIG     1      17.538  32.379  14.148  1.00  0.00    -0.317 OA
BRANCH  16  17
HETATM   17  C   LIG     1      18.050  33.658  13.779  1.00  0.00     0.183 C 
BRANCH  17  18
HETATM   18  C   LIG     1      18.896  33.570  12.496  1.00  0.00     0.002 C 
HETATM   19  C   LIG     1      18.453  34.620  11.469  1.00  0.00     0.011 C 
HETATM   20  C   LIG     1      20.383  33.742  12.826  1.00  0.00     0.011 C 
ENDBRANCH  17  18
ENDBRANCH  16  17
ENDBRANCH  14  16
ENDBRANCH   6  14
TORSDOF 8
ENDMDL
