REMARK  10 active torsions:
REMARK  status: ('A' for Active; 'I' for Inactive)
REMARK    1  A    between atoms: C_2  and  C_8 
REMARK    2  A    between atoms: C_2  and  O_3 
REMARK    3  A    between atoms: O_3  and  C_4 
REMARK    4  A    between atoms: C_4  and  C_5 
REMARK    5  A    between atoms: C_5  and  C_6 
REMARK    6  A    between atoms: C_13  and  C_14 
REMARK    7  A    between atoms: C_14  and  O_15 
REMARK    8  A    between atoms: O_15  and  C_16 
REMARK    9  A    between atoms: C_16  and  C_17 
REMARK   10  A    between atoms: C_17  and  C_18 
ROOT
HETATM    1  C   LIG     1       0.770  -1.339  -0.592  1.00  0.00     0.055 A 
HETATM    2  C   LIG     1       1.666  -2.221  -1.220  1.00  0.00     0.018 A 
HETATM    3  C   LIG     1       1.207  -3.383  -1.841  1.00  0.00     0.001 A 
HETATM    4  C   LIG     1      -0.153  -3.680  -1.849  1.00  0.00     0.001 A 
HETATM    5  C   LIG     1      -1.064  -2.804  -1.256  1.00  0.00     0.018 A 
HETATM    6  C   LIG     1      -0.626  -1.618  -0.637  1.00  0.00     0.055 A 
ENDROOT
BRANCH   1   7
HETATM    7  C   LIG     1       1.340  -0.189   0.142  1.00  0.00     0.294 C 
HETATM    8  O   LIG     1       0.857   0.157   1.256  1.00  0.00    -0.259 OA
BRANCH   7   9
HETATM    9  O   LIG     1       2.451   0.481  -0.386  1.00  0.00    -0.317 OA
BRANCH   9  10
HETATM   10  C   LIG     1       3.124   1.544   0.289  1.00  0.00     0.179 C 
BRANCH  10  11
HETATM   11  C   LIG     1       4.033   0.988   1.389  1.00  0.00     0.026 C 
BRANCH  11  12
HETATM   12  C   LIG     1       4.763   2.116   2.124  1.00  0.00    -0.002 C 
HETATM   13  C   LIG     1       5.717   1.561   3.177  1.00  0.00     0.005 C 
ENDBRANCH  11  12
ENDBRANCH  10  11
ENDBRANCH   9  10
ENDBRANCH   7   9
ENDBRANCH   1   7
BRANCH   6  14
HETATM   14  C   LIG     1      -1.655  -0.686  -0.117  1.00  0.00     0.294 C 
HETATM   15  O   LIG     1      -1.438   0.556  -0.096  1.00  0.00    -0.259 OA
BRANCH  14  16
HETATM   16  O   LIG     1      -2.895  -1.191   0.294  1.00  0.00    -0.317 OA
BRANCH  16  17
HETATM   17  C   LIG     1      -3.982  -0.378   0.738  1.00  0.00     0.179 C 
BRANCH  17  18
HETATM   18  C   LIG     1      -4.911  -0.009  -0.424  1.00  0.00     0.026 C 
BRANCH  18  19
HETATM   19  C   LIG     1      -4.292   1.037  -1.361  1.00  0.00    -0.002 C 
HETATM   20  C   LIG     1      -5.297   1.500  -2.414  1.00  0.00     0.005 C 
ENDBRANCH  18  19
ENDBRANCH  17  18
ENDBRANCH  16  17
ENDBRANCH  14  16
ENDBRANCH   6  14
TORSDOF 10
