MODEL 1
REMARK VINA RESULT:      -8.2      0.000      0.000
REMARK  10 active torsions:
REMARK  status: ('A' for Active; 'I' for Inactive)
REMARK    1  A    between atoms: C_2  and  C_8 
REMARK    2  A    between atoms: C_2  and  O_3 
REMARK    3  A    between atoms: O_3  and  C_4 
REMARK    4  A    between atoms: C_4  and  C_5 
REMARK    5  A    between atoms: C_5  and  C_6 
REMARK    6  A    between atoms: C_13  and  C_14 
REMARK    7  A    between atoms: C_14  and  O_15 
REMARK    8  A    between atoms: O_15  and  C_16 
REMARK    9  A    between atoms: C_16  and  C_17 
REMARK   10  A    between atoms: C_17  and  C_18 
ROOT
HETATM    1  C   LIG     1      17.771  37.215  24.462  1.00  0.00     0.055 A 
HETATM    2  C   LIG     1      18.468  37.185  25.682  1.00  0.00     0.018 A 
HETATM    3  C   LIG     1      18.477  36.035  26.471  1.00  0.00     0.001 A 
HETATM    4  C   LIG     1      17.794  34.896  26.054  1.00  0.00     0.001 A 
HETATM    5  C   LIG     1      17.118  34.893  24.833  1.00  0.00     0.018 A 
HETATM    6  C   LIG     1      17.108  36.037  24.012  1.00  0.00     0.055 A 
ENDROOT
BRANCH   1   7
HETATM    7  C   LIG     1      17.712  38.501  23.736  1.00  0.00     0.294 C 
HETATM    8  O   LIG     1      16.899  39.398  24.096  1.00  0.00    -0.259 OA
BRANCH   7   9
HETATM    9  O   LIG     1      18.600  38.735  22.678  1.00  0.00    -0.317 OA
BRANCH   9  10
HETATM   10  C   LIG     1      18.179  38.994  21.339  1.00  0.00     0.179 C 
BRANCH  10  11
HETATM   11  C   LIG     1      19.390  39.267  20.442  1.00  0.00     0.026 C 
BRANCH  11  12
HETATM   12  C   LIG     1      19.396  38.338  19.224  1.00  0.00    -0.002 C 
HETATM   13  C   LIG     1      19.069  36.903  19.625  1.00  0.00     0.005 C 
ENDBRANCH  11  12
ENDBRANCH  10  11
ENDBRANCH   9  10
ENDBRANCH   7   9
ENDBRANCH   1   7
BRANCH   6  14
HETATM   14  C   LIG     1      16.457  35.932  22.684  1.00  0.00     0.294 C 
HETATM   15  O   LIG     1      15.562  36.754  22.346  1.00  0.00    -0.259 OA
BRANCH  14  16
HETATM   16  O   LIG     1      16.887  34.950  21.783  1.00  0.00    -0.317 OA
BRANCH  16  17
HETATM   17  C   LIG     1      16.267  34.695  20.522  1.00  0.00     0.179 C 
BRANCH  17  18
HETATM   18  C   LIG     1      15.239  33.563  20.626  1.00  0.00     0.026 C 
BRANCH  18  19
HETATM   19  C   LIG     1      15.567  32.385  19.699  1.00  0.00    -0.002 C 
HETATM   20  C   LIG     1      14.829  31.119  20.131  1.00  0.00     0.005 C 
ENDBRANCH  18  19
ENDBRANCH  17  18
ENDBRANCH  16  17
ENDBRANCH  14  16
ENDBRANCH   6  14
TORSDOF 10
ENDMDL
MODEL 2
REMARK VINA RESULT:      -8.2      0.996      4.995
REMARK  10 active torsions:
REMARK  status: ('A' for Active; 'I' for Inactive)
REMARK    1  A    between atoms: C_2  and  C_8 
REMARK    2  A    between atoms: C_2  and  O_3 
REMARK    3  A    between atoms: O_3  and  C_4 
REMARK    4  A    between atoms: C_4  and  C_5 
REMARK    5  A    between atoms: C_5  and  C_6 
REMARK    6  A    between atoms: C_13  and  C_14 
REMARK    7  A    between atoms: C_14  and  O_15 
REMARK    8  A    between atoms: O_15  and  C_16 
REMARK    9  A    between atoms: C_16  and  C_17 
REMARK   10  A    between atoms: C_17  and  C_18 
ROOT
HETATM    1  C   LIG     1      17.123  35.832  23.857  1.00  0.00     0.055 A 
HETATM    2  C   LIG     1      17.546  34.911  24.830  1.00  0.00     0.018 A 
HETATM    3  C   LIG     1      17.976  35.343  26.084  1.00  0.00     0.001 A 
HETATM    4  C   LIG     1      17.986  36.702  26.389  1.00  0.00     0.001 A 
HETATM    5  C   LIG     1      17.542  37.633  25.448  1.00  0.00     0.018 A 
HETATM    6  C   LIG     1      17.089  37.219  24.181  1.00  0.00     0.055 A 
ENDROOT
BRANCH   1   7
HETATM    7  C   LIG     1      16.790  35.309  22.515  1.00  0.00     0.294 C 
HETATM    8  O   LIG     1      17.520  35.590  21.524  1.00  0.00    -0.259 OA
BRANCH   7   9
HETATM    9  O   LIG     1      15.686  34.460  22.362  1.00  0.00    -0.317 OA
BRANCH   9  10
HETATM   10  C   LIG     1      14.934  34.354  21.153  1.00  0.00     0.179 C 
BRANCH  10  11
HETATM   11  C   LIG     1      15.627  33.402  20.174  1.00  0.00     0.026 C 
BRANCH  11  12
HETATM   12  C   LIG     1      14.866  32.078  20.061  1.00  0.00    -0.002 C 
HETATM   13  C   LIG     1      14.570  31.735  18.604  1.00  0.00     0.005 C 
ENDBRANCH  11  12
ENDBRANCH  10  11
ENDBRANCH   9  10
ENDBRANCH   7   9
ENDBRANCH   1   7
BRANCH   6  14
HETATM   14  C   LIG     1      16.539  38.250  23.270  1.00  0.00     0.294 C 
HETATM   15  O   LIG     1      15.303  38.291  23.024  1.00  0.00    -0.259 OA
BRANCH  14  16
HETATM   16  O   LIG     1      17.396  39.219  22.731  1.00  0.00    -0.317 OA
BRANCH  16  17
HETATM   17  C   LIG     1      18.663  38.927  22.140  1.00  0.00     0.179 C 
BRANCH  17  18
HETATM   18  C   LIG     1      18.771  39.526  20.734  1.00  0.00     0.026 C 
BRANCH  18  19
HETATM   19  C   LIG     1      19.887  38.877  19.903  1.00  0.00    -0.002 C 
HETATM   20  C   LIG     1      19.483  37.482  19.429  1.00  0.00     0.005 C 
ENDBRANCH  18  19
ENDBRANCH  17  18
ENDBRANCH  16  17
ENDBRANCH  14  16
ENDBRANCH   6  14
TORSDOF 10
ENDMDL
MODEL 3
REMARK VINA RESULT:      -7.6      5.332      9.182
REMARK  10 active torsions:
REMARK  status: ('A' for Active; 'I' for Inactive)
REMARK    1  A    between atoms: C_2  and  C_8 
REMARK    2  A    between atoms: C_2  and  O_3 
REMARK    3  A    between atoms: O_3  and  C_4 
REMARK    4  A    between atoms: C_4  and  C_5 
REMARK    5  A    between atoms: C_5  and  C_6 
REMARK    6  A    between atoms: C_13  and  C_14 
REMARK    7  A    between atoms: C_14  and  O_15 
REMARK    8  A    between atoms: O_15  and  C_16 
REMARK    9  A    between atoms: C_16  and  C_17 
REMARK   10  A    between atoms: C_17  and  C_18 
ROOT
HETATM    1  C   LIG     1      14.660  32.283  16.342  1.00  0.00     0.055 A 
HETATM    2  C   LIG     1      13.501  31.570  16.694  1.00  0.00     0.018 A 
HETATM    3  C   LIG     1      13.082  30.472  15.941  1.00  0.00     0.001 A 
HETATM    4  C   LIG     1      13.815  30.068  14.829  1.00  0.00     0.001 A 
HETATM    5  C   LIG     1      14.985  30.744  14.477  1.00  0.00     0.018 A 
HETATM    6  C   LIG     1      15.436  31.844  15.231  1.00  0.00     0.055 A 
ENDROOT
BRANCH   1   7
HETATM    7  C   LIG     1      14.978  33.501  17.118  1.00  0.00     0.294 C 
HETATM    8  O   LIG     1      14.563  34.629  16.730  1.00  0.00    -0.259 OA
BRANCH   7   9
HETATM    9  O   LIG     1      15.701  33.386  18.312  1.00  0.00    -0.317 OA
BRANCH   9  10
HETATM   10  C   LIG     1      15.197  32.735  19.478  1.00  0.00     0.179 C 
BRANCH  10  11
HETATM   11  C   LIG     1      15.267  33.673  20.687  1.00  0.00     0.026 C 
BRANCH  11  12
HETATM   12  C   LIG     1      15.872  35.026  20.300  1.00  0.00    -0.002 C 
HETATM   13  C   LIG     1      16.908  35.479  21.325  1.00  0.00     0.005 C 
ENDBRANCH  11  12
ENDBRANCH  10  11
ENDBRANCH   9  10
ENDBRANCH   7   9
ENDBRANCH   1   7
BRANCH   6  14
HETATM   14  C   LIG     1      16.737  32.452  14.862  1.00  0.00     0.294 C 
HETATM   15  O   LIG     1      17.786  32.143  15.490  1.00  0.00    -0.259 OA
BRANCH  14  16
HETATM   16  O   LIG     1      16.802  33.326  13.769  1.00  0.00    -0.317 OA
BRANCH  16  17
HETATM   17  C   LIG     1      17.960  34.086  13.421  1.00  0.00     0.179 C 
BRANCH  17  18
HETATM   18  C   LIG     1      18.745  33.416  12.288  1.00  0.00     0.026 C 
BRANCH  18  19
HETATM   19  C   LIG     1      19.930  34.266  11.811  1.00  0.00    -0.002 C 
HETATM   20  C   LIG     1      21.166  34.027  12.676  1.00  0.00     0.005 C 
ENDBRANCH  18  19
ENDBRANCH  17  18
ENDBRANCH  16  17
ENDBRANCH  14  16
ENDBRANCH   6  14
TORSDOF 10
ENDMDL
MODEL 4
REMARK VINA RESULT:      -7.6      5.378      9.026
REMARK  10 active torsions:
REMARK  status: ('A' for Active; 'I' for Inactive)
REMARK    1  A    between atoms: C_2  and  C_8 
REMARK    2  A    between atoms: C_2  and  O_3 
REMARK    3  A    between atoms: O_3  and  C_4 
REMARK    4  A    between atoms: C_4  and  C_5 
REMARK    5  A    between atoms: C_5  and  C_6 
REMARK    6  A    between atoms: C_13  and  C_14 
REMARK    7  A    between atoms: C_14  and  O_15 
REMARK    8  A    between atoms: O_15  and  C_16 
REMARK    9  A    between atoms: C_16  and  C_17 
REMARK   10  A    between atoms: C_17  and  C_18 
ROOT
HETATM    1  C   LIG     1      15.508  31.856  15.140  1.00  0.00     0.055 A 
HETATM    2  C   LIG     1      15.081  30.784  14.337  1.00  0.00     0.018 A 
HETATM    3  C   LIG     1      13.932  30.063  14.661  1.00  0.00     0.001 A 
HETATM    4  C   LIG     1      13.187  30.404  15.787  1.00  0.00     0.001 A 
HETATM    5  C   LIG     1      13.576  31.483  16.582  1.00  0.00     0.018 A 
HETATM    6  C   LIG     1      14.724  32.235  16.267  1.00  0.00     0.055 A 
ENDROOT
BRANCH   1   7
HETATM    7  C   LIG     1      16.795  32.499  14.798  1.00  0.00     0.294 C 
HETATM    8  O   LIG     1      17.841  32.210  15.443  1.00  0.00    -0.259 OA
BRANCH   7   9
HETATM    9  O   LIG     1      16.852  33.394  13.722  1.00  0.00    -0.317 OA
BRANCH   9  10
HETATM   10  C   LIG     1      18.025  34.127  13.369  1.00  0.00     0.179 C 
BRANCH  10  11
HETATM   11  C   LIG     1      18.787  33.409  12.251  1.00  0.00     0.026 C 
BRANCH  11  12
HETATM   12  C   LIG     1      19.941  34.270  11.729  1.00  0.00    -0.002 C 
HETATM   13  C   LIG     1      21.168  34.151  12.629  1.00  0.00     0.005 C 
ENDBRANCH  11  12
ENDBRANCH  10  11
ENDBRANCH   9  10
ENDBRANCH   7   9
ENDBRANCH   1   7
BRANCH   6  14
HETATM   14  C   LIG     1      15.021  33.428  17.096  1.00  0.00     0.294 C 
HETATM   15  O   LIG     1      14.603  34.565  16.749  1.00  0.00    -0.259 OA
BRANCH  14  16
HETATM   16  O   LIG     1      15.718  33.271  18.300  1.00  0.00    -0.317 OA
BRANCH  16  17
HETATM   17  C   LIG     1      15.125  32.803  19.512  1.00  0.00     0.179 C 
BRANCH  17  18
HETATM   18  C   LIG     1      15.429  33.748  20.681  1.00  0.00     0.026 C 
BRANCH  18  19
HETATM   19  C   LIG     1      15.963  35.108  20.212  1.00  0.00    -0.002 C 
HETATM   20  C   LIG     1      16.805  35.775  21.298  1.00  0.00     0.005 C 
ENDBRANCH  18  19
ENDBRANCH  17  18
ENDBRANCH  16  17
ENDBRANCH  14  16
ENDBRANCH   6  14
TORSDOF 10
ENDMDL
MODEL 5
REMARK VINA RESULT:      -6.4      3.480      7.366
REMARK  10 active torsions:
REMARK  status: ('A' for Active; 'I' for Inactive)
REMARK    1  A    between atoms: C_2  and  C_8 
REMARK    2  A    between atoms: C_2  and  O_3 
REMARK    3  A    between atoms: O_3  and  C_4 
REMARK    4  A    between atoms: C_4  and  C_5 
REMARK    5  A    between atoms: C_5  and  C_6 
REMARK    6  A    between atoms: C_13  and  C_14 
REMARK    7  A    between atoms: C_14  and  O_15 
REMARK    8  A    between atoms: O_15  and  C_16 
REMARK    9  A    between atoms: C_16  and  C_17 
REMARK   10  A    between atoms: C_17  and  C_18 
ROOT
HETATM    1  C   LIG     1      15.000  33.371  18.103  1.00  0.00     0.055 A 
HETATM    2  C   LIG     1      14.553  32.077  17.785  1.00  0.00     0.018 A 
HETATM    3  C   LIG     1      14.461  31.092  18.768  1.00  0.00     0.001 A 
HETATM    4  C   LIG     1      14.808  31.384  20.084  1.00  0.00     0.001 A 
HETATM    5  C   LIG     1      15.227  32.670  20.428  1.00  0.00     0.018 A 
HETATM    6  C   LIG     1      15.313  33.685  19.456  1.00  0.00     0.055 A 
ENDROOT
BRANCH   1   7
HETATM    7  C   LIG     1      15.180  34.328  16.990  1.00  0.00     0.294 C 
HETATM    8  O   LIG     1      14.197  34.990  16.555  1.00  0.00    -0.259 OA
BRANCH   7   9
HETATM    9  O   LIG     1      16.459  34.529  16.457  1.00  0.00    -0.317 OA
BRANCH   9  10
HETATM   10  C   LIG     1      16.827  34.155  15.129  1.00  0.00     0.179 C 
BRANCH  10  11
HETATM   11  C   LIG     1      16.990  32.635  15.027  1.00  0.00     0.026 C 
BRANCH  11  12
HETATM   12  C   LIG     1      16.114  32.060  13.911  1.00  0.00    -0.002 C 
HETATM   13  C   LIG     1      15.198  30.961  14.441  1.00  0.00     0.005 C 
ENDBRANCH  11  12
ENDBRANCH  10  11
ENDBRANCH   9  10
ENDBRANCH   7   9
ENDBRANCH   1   7
BRANCH   6  14
HETATM   14  C   LIG     1      15.668  35.051  19.909  1.00  0.00     0.294 C 
HETATM   15  O   LIG     1      14.882  35.701  20.650  1.00  0.00    -0.259 OA
BRANCH  14  16
HETATM   16  O   LIG     1      16.912  35.590  19.558  1.00  0.00    -0.317 OA
BRANCH  16  17
HETATM   17  C   LIG     1      17.741  36.336  20.450  1.00  0.00     0.179 C 
BRANCH  17  18
HETATM   18  C   LIG     1      18.959  36.918  19.722  1.00  0.00     0.026 C 
BRANCH  18  19
HETATM   19  C   LIG     1      19.112  38.428  19.949  1.00  0.00    -0.002 C 
HETATM   20  C   LIG     1      20.419  38.947  19.352  1.00  0.00     0.005 C 
ENDBRANCH  18  19
ENDBRANCH  17  18
ENDBRANCH  16  17
ENDBRANCH  14  16
ENDBRANCH   6  14
TORSDOF 10
ENDMDL
MODEL 6
REMARK VINA RESULT:      -6.2      1.331      4.482
REMARK  10 active torsions:
REMARK  status: ('A' for Active; 'I' for Inactive)
REMARK    1  A    between atoms: C_2  and  C_8 
REMARK    2  A    between atoms: C_2  and  O_3 
REMARK    3  A    between atoms: O_3  and  C_4 
REMARK    4  A    between atoms: C_4  and  C_5 
REMARK    5  A    between atoms: C_5  and  C_6 
REMARK    6  A    between atoms: C_13  and  C_14 
REMARK    7  A    between atoms: C_14  and  O_15 
REMARK    8  A    between atoms: O_15  and  C_16 
REMARK    9  A    between atoms: C_16  and  C_17 
REMARK   10  A    between atoms: C_17  and  C_18 
ROOT
HETATM    1  C   LIG     1      17.132  36.045  24.567  1.00  0.00     0.055 A 
HETATM    2  C   LIG     1      17.176  34.841  25.290  1.00  0.00     0.018 A 
HETATM    3  C   LIG     1      18.006  34.707  26.403  1.00  0.00     0.001 A 
HETATM    4  C   LIG     1      18.800  35.773  26.815  1.00  0.00     0.001 A 
HETATM    5  C   LIG     1      18.750  36.988  26.129  1.00  0.00     0.018 A 
HETATM    6  C   LIG     1      17.909  37.152  25.012  1.00  0.00     0.055 A 
ENDROOT
BRANCH   1   7
HETATM    7  C   LIG     1      16.316  36.075  23.334  1.00  0.00     0.294 C 
HETATM    8  O   LIG     1      15.640  37.101  23.044  1.00  0.00    -0.259 OA
BRANCH   7   9
HETATM    9  O   LIG     1      16.340  34.976  22.467  1.00  0.00    -0.317 OA
BRANCH   9  10
HETATM   10  C   LIG     1      15.429  34.809  21.380  1.00  0.00     0.179 C 
BRANCH  10  11
HETATM   11  C   LIG     1      16.120  35.121  20.050  1.00  0.00     0.026 C 
BRANCH  11  12
HETATM   12  C   LIG     1      17.358  35.998  20.264  1.00  0.00    -0.002 C 
HETATM   13  C   LIG     1      18.003  36.374  18.934  1.00  0.00     0.005 C 
ENDBRANCH  11  12
ENDBRANCH  10  11
ENDBRANCH   9  10
ENDBRANCH   7   9
ENDBRANCH   1   7
BRANCH   6  14
HETATM   14  C   LIG     1      17.832  38.497  24.394  1.00  0.00     0.294 C 
HETATM   15  O   LIG     1      17.107  39.393  24.906  1.00  0.00    -0.259 OA
BRANCH  14  16
HETATM   16  O   LIG     1      18.617  38.783  23.270  1.00  0.00    -0.317 OA
BRANCH  16  17
HETATM   17  C   LIG     1      18.106  38.878  21.940  1.00  0.00     0.179 C 
BRANCH  17  18
HETATM   18  C   LIG     1      18.896  39.898  21.112  1.00  0.00     0.026 C 
BRANCH  18  19
HETATM   19  C   LIG     1      19.148  39.419  19.676  1.00  0.00    -0.002 C 
HETATM   20  C   LIG     1      20.485  38.689  19.563  1.00  0.00     0.005 C 
ENDBRANCH  18  19
ENDBRANCH  17  18
ENDBRANCH  16  17
ENDBRANCH  14  16
ENDBRANCH   6  14
TORSDOF 10
ENDMDL
MODEL 7
REMARK VINA RESULT:      -6.1      8.243     11.918
REMARK  10 active torsions:
REMARK  status: ('A' for Active; 'I' for Inactive)
REMARK    1  A    between atoms: C_2  and  C_8 
REMARK    2  A    between atoms: C_2  and  O_3 
REMARK    3  A    between atoms: O_3  and  C_4 
REMARK    4  A    between atoms: C_4  and  C_5 
REMARK    5  A    between atoms: C_5  and  C_6 
REMARK    6  A    between atoms: C_13  and  C_14 
REMARK    7  A    between atoms: C_14  and  O_15 
REMARK    8  A    between atoms: O_15  and  C_16 
REMARK    9  A    between atoms: C_16  and  C_17 
REMARK   10  A    between atoms: C_17  and  C_18 
ROOT
HETATM    1  C   LIG     1      14.429  30.663  15.360  1.00  0.00     0.055 A 
HETATM    2  C   LIG     1      13.554  30.617  16.459  1.00  0.00     0.018 A 
HETATM    3  C   LIG     1      13.557  31.632  17.417  1.00  0.00     0.001 A 
HETATM    4  C   LIG     1      14.430  32.709  17.291  1.00  0.00     0.001 A 
HETATM    5  C   LIG     1      15.288  32.789  16.193  1.00  0.00     0.018 A 
HETATM    6  C   LIG     1      15.292  31.786  15.205  1.00  0.00     0.055 A 
ENDROOT
BRANCH   1   7
HETATM    7  C   LIG     1      14.448  29.499  14.449  1.00  0.00     0.294 C 
HETATM    8  O   LIG     1      15.535  28.914  14.187  1.00  0.00    -0.259 OA
BRANCH   7   9
HETATM    9  O   LIG     1      13.242  29.021  13.918  1.00  0.00    -0.317 OA
BRANCH   9  10
HETATM   10  C   LIG     1      12.944  27.634  13.764  1.00  0.00     0.179 C 
BRANCH  10  11
HETATM   11  C   LIG     1      11.651  27.450  12.965  1.00  0.00     0.026 C 
BRANCH  11  12
HETATM   12  C   LIG     1      11.406  25.973  12.644  1.00  0.00    -0.002 C 
HETATM   13  C   LIG     1      11.773  25.655  11.198  1.00  0.00     0.005 C 
ENDBRANCH  11  12
ENDBRANCH  10  11
ENDBRANCH   9  10
ENDBRANCH   7   9
ENDBRANCH   1   7
BRANCH   6  14
HETATM   14  C   LIG     1      16.155  31.985  14.017  1.00  0.00     0.294 C 
HETATM   15  O   LIG     1      15.679  31.868  12.855  1.00  0.00    -0.259 OA
BRANCH  14  16
HETATM   16  O   LIG     1      17.491  32.366  14.194  1.00  0.00    -0.317 OA
BRANCH  16  17
HETATM   17  C   LIG     1      17.993  33.675  13.919  1.00  0.00     0.179 C 
BRANCH  17  18
HETATM   18  C   LIG     1      18.741  33.713  12.581  1.00  0.00     0.026 C 
BRANCH  18  19
HETATM   19  C   LIG     1      20.262  33.815  12.762  1.00  0.00    -0.002 C 
HETATM   20  C   LIG     1      21.000  33.361  11.504  1.00  0.00     0.005 C 
ENDBRANCH  18  19
ENDBRANCH  17  18
ENDBRANCH  16  17
ENDBRANCH  14  16
ENDBRANCH   6  14
TORSDOF 10
ENDMDL
MODEL 8
REMARK VINA RESULT:      -6.1      8.029     11.449
REMARK  10 active torsions:
REMARK  status: ('A' for Active; 'I' for Inactive)
REMARK    1  A    between atoms: C_2  and  C_8 
REMARK    2  A    between atoms: C_2  and  O_3 
REMARK    3  A    between atoms: O_3  and  C_4 
REMARK    4  A    between atoms: C_4  and  C_5 
REMARK    5  A    between atoms: C_5  and  C_6 
REMARK    6  A    between atoms: C_13  and  C_14 
REMARK    7  A    between atoms: C_14  and  O_15 
REMARK    8  A    between atoms: O_15  and  C_16 
REMARK    9  A    between atoms: C_16  and  C_17 
REMARK   10  A    between atoms: C_17  and  C_18 
ROOT
HETATM    1  C   LIG     1      14.526  30.879  15.501  1.00  0.00     0.055 A 
HETATM    2  C   LIG     1      13.759  30.878  16.679  1.00  0.00     0.018 A 
HETATM    3  C   LIG     1      13.939  31.864  17.649  1.00  0.00     0.001 A 
HETATM    4  C   LIG     1      14.884  32.868  17.457  1.00  0.00     0.001 A 
HETATM    5  C   LIG     1      15.637  32.905  16.282  1.00  0.00     0.018 A 
HETATM    6  C   LIG     1      15.461  31.930  15.282  1.00  0.00     0.055 A 
ENDROOT
BRANCH   1   7
HETATM    7  C   LIG     1      14.359  29.740  14.573  1.00  0.00     0.294 C 
HETATM    8  O   LIG     1      13.250  29.540  14.005  1.00  0.00    -0.259 OA
BRANCH   7   9
HETATM    9  O   LIG     1      15.457  28.916  14.291  1.00  0.00    -0.317 OA
BRANCH   9  10
HETATM   10  C   LIG     1      15.355  27.686  13.574  1.00  0.00     0.179 C 
BRANCH  10  11
HETATM   11  C   LIG     1      16.048  27.802  12.213  1.00  0.00     0.026 C 
BRANCH  11  12
HETATM   12  C   LIG     1      16.307  26.420  11.607  1.00  0.00    -0.002 C 
HETATM   13  C   LIG     1      15.293  26.099  10.513  1.00  0.00     0.005 C 
ENDBRANCH  11  12
ENDBRANCH  10  11
ENDBRANCH   9  10
ENDBRANCH   7   9
ENDBRANCH   1   7
BRANCH   6  14
HETATM   14  C   LIG     1      16.221  32.088  14.019  1.00  0.00     0.294 C 
HETATM   15  O   LIG     1      15.648  31.932  12.907  1.00  0.00    -0.259 OA
BRANCH  14  16
HETATM   16  O   LIG     1      17.567  32.471  14.070  1.00  0.00    -0.317 OA
BRANCH  16  17
HETATM   17  C   LIG     1      18.036  33.786  13.769  1.00  0.00     0.179 C 
BRANCH  17  18
HETATM   18  C   LIG     1      18.613  33.860  12.351  1.00  0.00     0.026 C 
BRANCH  18  19
HETATM   19  C   LIG     1      20.055  33.342  12.276  1.00  0.00    -0.002 C 
HETATM   20  C   LIG     1      21.054  34.427  12.675  1.00  0.00     0.005 C 
ENDBRANCH  18  19
ENDBRANCH  17  18
ENDBRANCH  16  17
ENDBRANCH  14  16
ENDBRANCH   6  14
TORSDOF 10
ENDMDL
MODEL 9
REMARK VINA RESULT:      -5.9      6.273     10.722
REMARK  10 active torsions:
REMARK  status: ('A' for Active; 'I' for Inactive)
REMARK    1  A    between atoms: C_2  and  C_8 
REMARK    2  A    between atoms: C_2  and  O_3 
REMARK    3  A    between atoms: O_3  and  C_4 
REMARK    4  A    between atoms: C_4  and  C_5 
REMARK    5  A    between atoms: C_5  and  C_6 
REMARK    6  A    between atoms: C_13  and  C_14 
REMARK    7  A    between atoms: C_14  and  O_15 
REMARK    8  A    between atoms: O_15  and  C_16 
REMARK    9  A    between atoms: C_16  and  C_17 
REMARK   10  A    between atoms: C_17  and  C_18 
ROOT
HETATM    1  C   LIG     1      15.122  31.173  14.986  1.00  0.00     0.055 A 
HETATM    2  C   LIG     1      16.126  31.579  14.089  1.00  0.00     0.018 A 
HETATM    3  C   LIG     1      16.784  32.798  14.258  1.00  0.00     0.001 A 
HETATM    4  C   LIG     1      16.454  33.627  15.326  1.00  0.00     0.001 A 
HETATM    5  C   LIG     1      15.480  33.231  16.245  1.00  0.00     0.018 A 
HETATM    6  C   LIG     1      14.814  31.999  16.104  1.00  0.00     0.055 A 
ENDROOT
BRANCH   1   7
HETATM    7  C   LIG     1      14.392  29.924  14.679  1.00  0.00     0.294 C 
HETATM    8  O   LIG     1      13.130  29.919  14.640  1.00  0.00    -0.259 OA
BRANCH   7   9
HETATM    9  O   LIG     1      15.114  28.761  14.383  1.00  0.00    -0.317 OA
BRANCH   9  10
HETATM   10  C   LIG     1      14.834  27.924  13.260  1.00  0.00     0.179 C 
BRANCH  10  11
HETATM   11  C   LIG     1      16.079  27.124  12.866  1.00  0.00     0.026 C 
BRANCH  11  12
HETATM   12  C   LIG     1      16.178  26.971  11.346  1.00  0.00    -0.002 C 
HETATM   13  C   LIG     1      15.043  26.108  10.804  1.00  0.00     0.005 C 
ENDBRANCH  11  12
ENDBRANCH  10  11
ENDBRANCH   9  10
ENDBRANCH   7   9
ENDBRANCH   1   7
BRANCH   6  14
HETATM   14  C   LIG     1      13.865  31.598  17.170  1.00  0.00     0.294 C 
HETATM   15  O   LIG     1      12.628  31.799  17.031  1.00  0.00    -0.259 OA
BRANCH  14  16
HETATM   16  O   LIG     1      14.348  30.937  18.306  1.00  0.00    -0.317 OA
BRANCH  16  17
HETATM   17  C   LIG     1      14.429  31.530  19.603  1.00  0.00     0.179 C 
BRANCH  17  18
HETATM   18  C   LIG     1      15.740  32.305  19.778  1.00  0.00     0.026 C 
BRANCH  18  19
HETATM   19  C   LIG     1      15.522  33.823  19.836  1.00  0.00    -0.002 C 
HETATM   20  C   LIG     1      15.419  34.312  21.279  1.00  0.00     0.005 C 
ENDBRANCH  18  19
ENDBRANCH  17  18
ENDBRANCH  16  17
ENDBRANCH  14  16
ENDBRANCH   6  14
TORSDOF 10
ENDMDL
MODEL 10
REMARK VINA RESULT:      -5.8      6.380     10.047
REMARK  10 active torsions:
REMARK  status: ('A' for Active; 'I' for Inactive)
REMARK    1  A    between atoms: C_2  and  C_8 
REMARK    2  A    between atoms: C_2  and  O_3 
REMARK    3  A    between atoms: O_3  and  C_4 
REMARK    4  A    between atoms: C_4  and  C_5 
REMARK    5  A    between atoms: C_5  and  C_6 
REMARK    6  A    between atoms: C_13  and  C_14 
REMARK    7  A    between atoms: C_14  and  O_15 
REMARK    8  A    between atoms: O_15  and  C_16 
REMARK    9  A    between atoms: C_16  and  C_17 
REMARK   10  A    between atoms: C_17  and  C_18 
ROOT
HETATM    1  C   LIG     1      15.785  32.468  15.072  1.00  0.00     0.055 A 
HETATM    2  C   LIG     1      14.967  31.479  15.645  1.00  0.00     0.018 A 
HETATM    3  C   LIG     1      14.583  30.356  14.911  1.00  0.00     0.001 A 
HETATM    4  C   LIG     1      15.014  30.200  13.596  1.00  0.00     0.001 A 
HETATM    5  C   LIG     1      15.850  31.156  13.016  1.00  0.00     0.018 A 
HETATM    6  C   LIG     1      16.263  32.289  13.742  1.00  0.00     0.055 A 
ENDROOT
BRANCH   1   7
HETATM    7  C   LIG     1      16.056  33.682  15.871  1.00  0.00     0.294 C 
HETATM    8  O   LIG     1      17.182  34.249  15.803  1.00  0.00    -0.259 OA
BRANCH   7   9
HETATM    9  O   LIG     1      15.037  34.224  16.665  1.00  0.00    -0.317 OA
BRANCH   9  10
HETATM   10  C   LIG     1      15.094  34.278  18.090  1.00  0.00     0.179 C 
BRANCH  10  11
HETATM   11  C   LIG     1      15.126  32.864  18.678  1.00  0.00     0.026 C 
BRANCH  11  12
HETATM   12  C   LIG     1      15.599  32.883  20.134  1.00  0.00    -0.002 C 
HETATM   13  C   LIG     1      15.701  34.310  20.663  1.00  0.00     0.005 C 
ENDBRANCH  11  12
ENDBRANCH  10  11
ENDBRANCH   9  10
ENDBRANCH   7   9
ENDBRANCH   1   7
BRANCH   6  14
HETATM   14  C   LIG     1      17.230  33.210  13.099  1.00  0.00     0.294 C 
HETATM   15  O   LIG     1      16.839  34.303  12.606  1.00  0.00    -0.259 OA
BRANCH  14  16
HETATM   16  O   LIG     1      18.592  32.885  13.097  1.00  0.00    -0.317 OA
BRANCH  16  17
HETATM   17  C   LIG     1      19.645  33.850  13.068  1.00  0.00     0.179 C 
BRANCH  17  18
HETATM   18  C   LIG     1      20.465  33.739  11.778  1.00  0.00     0.026 C 
BRANCH  18  19
HETATM   19  C   LIG     1      19.581  33.599  10.531  1.00  0.00    -0.002 C 
HETATM   20  C   LIG     1      19.146  34.966  10.005  1.00  0.00     0.005 C 
ENDBRANCH  18  19
ENDBRANCH  17  18
ENDBRANCH  16  17
ENDBRANCH  14  16
ENDBRANCH   6  14
TORSDOF 10
ENDMDL
MODEL 11
REMARK VINA RESULT:      -5.6      2.864      6.347
REMARK  10 active torsions:
REMARK  status: ('A' for Active; 'I' for Inactive)
REMARK    1  A    between atoms: C_2  and  C_8 
REMARK    2  A    between atoms: C_2  and  O_3 
REMARK    3  A    between atoms: O_3  and  C_4 
REMARK    4  A    between atoms: C_4  and  C_5 
REMARK    5  A    between atoms: C_5  and  C_6 
REMARK    6  A    between atoms: C_13  and  C_14 
REMARK    7  A    between atoms: C_14  and  O_15 
REMARK    8  A    between atoms: O_15  and  C_16 
REMARK    9  A    between atoms: C_16  and  C_17 
REMARK   10  A    between atoms: C_17  and  C_18 
ROOT
HETATM    1  C   LIG     1      16.281  36.142  20.900  1.00  0.00     0.055 A 
HETATM    2  C   LIG     1      15.319  36.448  21.879  1.00  0.00     0.018 A 
HETATM    3  C   LIG     1      15.556  37.446  22.825  1.00  0.00     0.001 A 
HETATM    4  C   LIG     1      16.753  38.156  22.806  1.00  0.00     0.001 A 
HETATM    5  C   LIG     1      17.711  37.888  21.826  1.00  0.00     0.018 A 
HETATM    6  C   LIG     1      17.487  36.897  20.852  1.00  0.00     0.055 A 
ENDROOT
BRANCH   1   7
HETATM    7  C   LIG     1      16.007  34.998  20.004  1.00  0.00     0.294 C 
HETATM    8  O   LIG     1      16.081  35.140  18.751  1.00  0.00    -0.259 OA
BRANCH   7   9
HETATM    9  O   LIG     1      15.715  33.746  20.558  1.00  0.00    -0.317 OA
BRANCH   9  10
HETATM   10  C   LIG     1      15.907  32.513  19.863  1.00  0.00     0.179 C 
BRANCH  10  11
HETATM   11  C   LIG     1      14.610  32.081  19.172  1.00  0.00     0.026 C 
BRANCH  11  12
HETATM   12  C   LIG     1      14.726  32.212  17.651  1.00  0.00    -0.002 C 
HETATM   13  C   LIG     1      13.744  31.284  16.941  1.00  0.00     0.005 C 
ENDBRANCH  11  12
ENDBRANCH  10  11
ENDBRANCH   9  10
ENDBRANCH   7   9
ENDBRANCH   1   7
BRANCH   6  14
HETATM   14  C   LIG     1      18.501  36.735  19.782  1.00  0.00     0.294 C 
HETATM   15  O   LIG     1      19.423  35.883  19.901  1.00  0.00    -0.259 OA
BRANCH  14  16
HETATM   16  O   LIG     1      18.391  37.494  18.610  1.00  0.00    -0.317 OA
BRANCH  16  17
HETATM   17  C   LIG     1      19.165  38.664  18.340  1.00  0.00     0.179 C 
BRANCH  17  18
HETATM   18  C   LIG     1      18.309  39.932  18.441  1.00  0.00     0.026 C 
BRANCH  18  19
HETATM   19  C   LIG     1      17.874  40.457  17.067  1.00  0.00    -0.002 C 
HETATM   20  C   LIG     1      18.607  39.733  15.940  1.00  0.00     0.005 C 
ENDBRANCH  18  19
ENDBRANCH  17  18
ENDBRANCH  16  17
ENDBRANCH  14  16
ENDBRANCH   6  14
TORSDOF 10
ENDMDL
MODEL 12
REMARK VINA RESULT:      -5.4      3.809      7.063
REMARK  10 active torsions:
REMARK  status: ('A' for Active; 'I' for Inactive)
REMARK    1  A    between atoms: C_2  and  C_8 
REMARK    2  A    between atoms: C_2  and  O_3 
REMARK    3  A    between atoms: O_3  and  C_4 
REMARK    4  A    between atoms: C_4  and  C_5 
REMARK    5  A    between atoms: C_5  and  C_6 
REMARK    6  A    between atoms: C_13  and  C_14 
REMARK    7  A    between atoms: C_14  and  O_15 
REMARK    8  A    between atoms: O_15  and  C_16 
REMARK    9  A    between atoms: C_16  and  C_17 
REMARK   10  A    between atoms: C_17  and  C_18 
ROOT
HETATM    1  C   LIG     1      15.121  33.113  18.056  1.00  0.00     0.055 A 
HETATM    2  C   LIG     1      14.525  31.845  17.954  1.00  0.00     0.018 A 
HETATM    3  C   LIG     1      14.295  31.070  19.091  1.00  0.00     0.001 A 
HETATM    4  C   LIG     1      14.652  31.551  20.348  1.00  0.00     0.001 A 
HETATM    5  C   LIG     1      15.219  32.821  20.476  1.00  0.00     0.018 A 
HETATM    6  C   LIG     1      15.446  33.627  19.345  1.00  0.00     0.055 A 
ENDROOT
BRANCH   1   7
HETATM    7  C   LIG     1      15.436  33.827  16.800  1.00  0.00     0.294 C 
HETATM    8  O   LIG     1      14.730  34.806  16.430  1.00  0.00    -0.259 OA
BRANCH   7   9
HETATM    9  O   LIG     1      16.554  33.438  16.051  1.00  0.00    -0.317 OA
BRANCH   9  10
HETATM   10  C   LIG     1      17.159  34.261  15.054  1.00  0.00     0.179 C 
BRANCH  10  11
HETATM   11  C   LIG     1      18.220  33.472  14.281  1.00  0.00     0.026 C 
BRANCH  11  12
HETATM   12  C   LIG     1      18.410  34.037  12.870  1.00  0.00    -0.002 C 
HETATM   13  C   LIG     1      19.819  33.767  12.353  1.00  0.00     0.005 C 
ENDBRANCH  11  12
ENDBRANCH  10  11
ENDBRANCH   9  10
ENDBRANCH   7   9
ENDBRANCH   1   7
BRANCH   6  14
HETATM   14  C   LIG     1      15.957  35.001  19.563  1.00  0.00     0.294 C 
HETATM   15  O   LIG     1      16.646  35.574  18.676  1.00  0.00    -0.259 OA
BRANCH  14  16
HETATM   16  O   LIG     1      15.615  35.682  20.738  1.00  0.00    -0.317 OA
BRANCH  16  17
HETATM   17  C   LIG     1      16.568  36.251  21.638  1.00  0.00     0.179 C 
BRANCH  17  18
HETATM   18  C   LIG     1      16.923  35.272  22.763  1.00  0.00     0.026 C 
BRANCH  18  19
HETATM   19  C   LIG     1      17.056  35.966  24.125  1.00  0.00    -0.002 C 
HETATM   20  C   LIG     1      17.532  34.991  25.199  1.00  0.00     0.005 C 
ENDBRANCH  18  19
ENDBRANCH  17  18
ENDBRANCH  16  17
ENDBRANCH  14  16
ENDBRANCH   6  14
TORSDOF 10
ENDMDL
