REMARK  2 active torsions:
REMARK  status: ('A' for Active; 'I' for Inactive)
REMARK    1  A    between atoms: C_7  and  C_8 
REMARK    2  A    between atoms: C_20  and  O_21 
ROOT
HETATM    1  C   LIG     1      -0.237   0.626  -0.031  1.00  0.00     0.079 C 
HETATM    2  C   LIG     1       0.884  -0.330  -0.275  1.00  0.00     0.022 A 
HETATM    3  C   LIG     1       0.676  -1.379  -1.192  1.00  0.00     0.040 A 
HETATM    4  C   LIG     1       1.659  -2.348  -1.407  1.00  0.00     0.035 A 
HETATM    5 CL   LIG     1       1.374  -3.646  -2.552  1.00  0.00    -0.084 Cl
HETATM    6  C   LIG     1       2.861  -2.289  -0.704  1.00  0.00     0.026 A 
HETATM    7  C   LIG     1       3.088  -1.257   0.206  1.00  0.00     0.032 A 
HETATM    8  C   LIG     1       2.122  -0.260   0.420  1.00  0.00     0.047 A 
HETATM    9  N   LIG     1       2.416   0.772   1.377  1.00  0.00    -0.323 N 
HETATM   10  C   LIG     1       2.082   2.150   1.180  1.00  0.00     0.272 C 
HETATM   11  O   LIG     1       2.483   3.009   2.012  1.00  0.00    -0.268 OA
HETATM   12  N   LIG     1      -0.040   1.907   0.085  1.00  0.00    -0.247 NA
HETATM   13  C   LIG     1       1.256   2.570   0.004  1.00  0.00     0.335 C 
HETATM   14  H   LIG     1       3.065   0.545   2.164  1.00  0.00     0.169 HD
ENDROOT
BRANCH   1  15
HETATM   15  C   LIG     1      -1.625   0.113   0.087  1.00  0.00     0.015 A 
HETATM   16  C   LIG     1      -2.712   0.733  -0.575  1.00  0.00     0.046 A 
HETATM   17 CL   LIG     1      -2.492   2.107  -1.655  1.00  0.00    -0.083 Cl
HETATM   18  C   LIG     1      -4.006   0.219  -0.421  1.00  0.00     0.025 A 
HETATM   19  C   LIG     1      -4.231  -0.902   0.380  1.00  0.00     0.002 A 
HETATM   20  C   LIG     1      -3.164  -1.522   1.030  1.00  0.00     0.001 A 
HETATM   21  C   LIG     1      -1.869  -1.020   0.884  1.00  0.00     0.015 A 
ENDBRANCH   1  15
BRANCH  13  22
HETATM   22  O   LIG     1       1.068   3.960   0.014  1.00  0.00    -0.367 OA
HETATM   23  H   LIG     1       0.638   4.192  -0.851  1.00  0.00     0.212 HD
ENDBRANCH  13  22
TORSDOF 2
