MODEL 1
REMARK VINA RESULT:      -7.0      0.000      0.000
REMARK  2 active torsions:
REMARK  status: ('A' for Active; 'I' for Inactive)
REMARK    1  A    between atoms: C_7  and  C_8 
REMARK    2  A    between atoms: C_20  and  O_21 
ROOT
HETATM    1  C   LIG     1      15.776  31.852  15.513  1.00  0.00     0.079 C 
HETATM    2  C   LIG     1      15.646  32.427  16.885  1.00  0.00     0.022 A 
HETATM    3  C   LIG     1      15.353  31.551  17.949  1.00  0.00     0.040 A 
HETATM    4  C   LIG     1      15.145  32.038  19.241  1.00  0.00     0.035 A 
HETATM    5 CL   LIG     1      14.779  30.926  20.548  1.00  0.00    -0.084 Cl
HETATM    6  C   LIG     1      15.219  33.407  19.490  1.00  0.00     0.026 A 
HETATM    7  C   LIG     1      15.511  34.291  18.452  1.00  0.00     0.032 A 
HETATM    8  C   LIG     1      15.745  33.820  17.149  1.00  0.00     0.047 A 
HETATM    9  N   LIG     1      16.034  34.785  16.123  1.00  0.00    -0.323 N 
HETATM   10  C   LIG     1      17.018  34.582  15.103  1.00  0.00     0.272 C 
HETATM   11  O   LIG     1      17.295  35.527  14.315  1.00  0.00    -0.268 OA
HETATM   12  N   LIG     1      16.702  32.240  14.686  1.00  0.00    -0.247 NA
HETATM   13  C   LIG     1      17.706  33.260  14.965  1.00  0.00     0.335 C 
HETATM   14  H   LIG     1      15.648  35.750  16.230  1.00  0.00     0.169 HD
ENDROOT
BRANCH   1  15
HETATM   15  C   LIG     1      14.824  30.805  15.064  1.00  0.00     0.015 A 
HETATM   16  C   LIG     1      13.460  30.819  15.443  1.00  0.00     0.046 A 
HETATM   17 CL   LIG     1      12.768  32.122  16.405  1.00  0.00    -0.083 Cl
HETATM   18  C   LIG     1      12.605  29.800  15.005  1.00  0.00     0.025 A 
HETATM   19  C   LIG     1      13.088  28.771  14.195  1.00  0.00     0.002 A 
HETATM   20  C   LIG     1      14.429  28.754  13.812  1.00  0.00     0.001 A 
HETATM   21  C   LIG     1      15.292  29.764  14.242  1.00  0.00     0.015 A 
ENDBRANCH   1  15
BRANCH  13  22
HETATM   22  O   LIG     1      18.631  33.302  13.911  1.00  0.00    -0.367 OA
HETATM   23  H   LIG     1      18.101  33.391  13.075  1.00  0.00     0.212 HD
ENDBRANCH  13  22
TORSDOF 2
ENDMDL
MODEL 2
REMARK VINA RESULT:      -6.7      6.177      9.381
REMARK  2 active torsions:
REMARK  status: ('A' for Active; 'I' for Inactive)
REMARK    1  A    between atoms: C_7  and  C_8 
REMARK    2  A    between atoms: C_20  and  O_21 
ROOT
HETATM    1  C   LIG     1      17.501  37.137  23.011  1.00  0.00     0.079 C 
HETATM    2  C   LIG     1      16.890  36.322  21.918  1.00  0.00     0.022 A 
HETATM    3  C   LIG     1      15.759  35.540  22.224  1.00  0.00     0.040 A 
HETATM    4  C   LIG     1      15.189  34.700  21.265  1.00  0.00     0.035 A 
HETATM    5 CL   LIG     1      13.782  33.734  21.671  1.00  0.00    -0.084 Cl
HETATM    6  C   LIG     1      15.744  34.622  19.989  1.00  0.00     0.026 A 
HETATM    7  C   LIG     1      16.862  35.390  19.665  1.00  0.00     0.032 A 
HETATM    8  C   LIG     1      17.437  36.259  20.608  1.00  0.00     0.047 A 
HETATM    9  N   LIG     1      18.592  37.017  20.212  1.00  0.00    -0.323 N 
HETATM   10  C   LIG     1      18.803  38.385  20.579  1.00  0.00     0.272 C 
HETATM   11  O   LIG     1      19.781  39.013  20.090  1.00  0.00    -0.268 OA
HETATM   12  N   LIG     1      17.926  38.351  22.813  1.00  0.00    -0.247 NA
HETATM   13  C   LIG     1      17.878  39.063  21.542  1.00  0.00     0.335 C 
HETATM   14  H   LIG     1      19.214  36.619  19.472  1.00  0.00     0.169 HD
ENDROOT
BRANCH   1  15
HETATM   15  C   LIG     1      17.634  36.556  24.371  1.00  0.00     0.015 A 
HETATM   16  C   LIG     1      17.632  37.363  25.534  1.00  0.00     0.046 A 
HETATM   17 CL   LIG     1      17.387  39.106  25.466  1.00  0.00    -0.083 Cl
HETATM   18  C   LIG     1      17.775  36.769  26.794  1.00  0.00     0.025 A 
HETATM   19  C   LIG     1      17.918  35.385  26.912  1.00  0.00     0.002 A 
HETATM   20  C   LIG     1      17.914  34.583  25.771  1.00  0.00     0.001 A 
HETATM   21  C   LIG     1      17.772  35.163  24.508  1.00  0.00     0.015 A 
ENDBRANCH   1  15
BRANCH  13  22
HETATM   22  O   LIG     1      18.274  40.394  21.740  1.00  0.00    -0.367 OA
HETATM   23  H   LIG     1      18.769  40.665  20.923  1.00  0.00     0.212 HD
ENDBRANCH  13  22
TORSDOF 2
ENDMDL
MODEL 3
REMARK VINA RESULT:      -6.2      5.609      7.539
REMARK  2 active torsions:
REMARK  status: ('A' for Active; 'I' for Inactive)
REMARK    1  A    between atoms: C_7  and  C_8 
REMARK    2  A    between atoms: C_20  and  O_21 
ROOT
HETATM    1  C   LIG     1      17.330  36.174  21.386  1.00  0.00     0.079 C 
HETATM    2  C   LIG     1      17.495  36.728  22.763  1.00  0.00     0.022 A 
HETATM    3  C   LIG     1      17.479  35.829  23.848  1.00  0.00     0.040 A 
HETATM    4  C   LIG     1      17.554  36.292  25.164  1.00  0.00     0.035 A 
HETATM    5 CL   LIG     1      17.529  35.152  26.497  1.00  0.00    -0.084 Cl
HETATM    6  C   LIG     1      17.637  37.660  25.417  1.00  0.00     0.026 A 
HETATM    7  C   LIG     1      17.657  38.567  24.357  1.00  0.00     0.032 A 
HETATM    8  C   LIG     1      17.606  38.120  23.026  1.00  0.00     0.047 A 
HETATM    9  N   LIG     1      17.624  39.107  21.981  1.00  0.00    -0.323 N 
HETATM   10  C   LIG     1      18.358  38.952  20.761  1.00  0.00     0.272 C 
HETATM   11  O   LIG     1      18.419  39.916  19.949  1.00  0.00    -0.268 OA
HETATM   12  N   LIG     1      18.032  36.605  20.379  1.00  0.00    -0.247 NA
HETATM   13  C   LIG     1      19.040  37.658  20.445  1.00  0.00     0.335 C 
HETATM   14  H   LIG     1      17.241  40.056  22.191  1.00  0.00     0.169 HD
ENDROOT
BRANCH   1  15
HETATM   15  C   LIG     1      16.336  35.098  21.143  1.00  0.00     0.015 A 
HETATM   16  C   LIG     1      14.983  35.224  21.540  1.00  0.00     0.046 A 
HETATM   17 CL   LIG     1      14.355  36.696  22.276  1.00  0.00    -0.083 Cl
HETATM   18  C   LIG     1      14.087  34.175  21.300  1.00  0.00     0.025 A 
HETATM   19  C   LIG     1      14.518  33.006  20.671  1.00  0.00     0.002 A 
HETATM   20  C   LIG     1      15.848  32.878  20.271  1.00  0.00     0.001 A 
HETATM   21  C   LIG     1      16.752  33.917  20.503  1.00  0.00     0.015 A 
ENDBRANCH   1  15
BRANCH  13  22
HETATM   22  O   LIG     1      19.700  37.745  19.211  1.00  0.00    -0.367 OA
HETATM   23  H   LIG     1      20.673  37.751  19.412  1.00  0.00     0.212 HD
ENDBRANCH  13  22
TORSDOF 2
ENDMDL
MODEL 4
REMARK VINA RESULT:      -6.1      7.112      9.124
REMARK  2 active torsions:
REMARK  status: ('A' for Active; 'I' for Inactive)
REMARK    1  A    between atoms: C_7  and  C_8 
REMARK    2  A    between atoms: C_20  and  O_21 
ROOT
HETATM    1  C   LIG     1      17.009  36.787  21.612  1.00  0.00     0.079 C 
HETATM    2  C   LIG     1      17.171  36.327  23.023  1.00  0.00     0.022 A 
HETATM    3  C   LIG     1      17.761  37.212  23.947  1.00  0.00     0.040 A 
HETATM    4  C   LIG     1      18.008  36.814  25.263  1.00  0.00     0.035 A 
HETATM    5 CL   LIG     1      18.747  37.933  26.393  1.00  0.00    -0.084 Cl
HETATM    6  C   LIG     1      17.677  35.524  25.674  1.00  0.00     0.026 A 
HETATM    7  C   LIG     1      17.089  34.634  24.776  1.00  0.00     0.032 A 
HETATM    8  C   LIG     1      16.812  35.022  23.455  1.00  0.00     0.047 A 
HETATM    9  N   LIG     1      16.211  34.054  22.578  1.00  0.00    -0.323 N 
HETATM   10  C   LIG     1      15.182  34.373  21.636  1.00  0.00     0.272 C 
HETATM   11  O   LIG     1      14.623  33.444  20.991  1.00  0.00    -0.268 OA
HETATM   12  N   LIG     1      15.933  36.538  20.923  1.00  0.00    -0.247 NA
HETATM   13  C   LIG     1      14.776  35.796  21.409  1.00  0.00     0.335 C 
HETATM   14  H   LIG     1      16.395  33.041  22.761  1.00  0.00     0.169 HD
ENDROOT
BRANCH   1  15
HETATM   15  C   LIG     1      18.102  37.551  20.959  1.00  0.00     0.015 A 
HETATM   16  C   LIG     1      18.315  38.926  21.222  1.00  0.00     0.046 A 
HETATM   17 CL   LIG     1      17.357  39.815  22.403  1.00  0.00    -0.083 Cl
HETATM   18  C   LIG     1      19.352  39.606  20.571  1.00  0.00     0.025 A 
HETATM   19  C   LIG     1      20.177  38.938  19.665  1.00  0.00     0.002 A 
HETATM   20  C   LIG     1      19.977  37.582  19.406  1.00  0.00     0.001 A 
HETATM   21  C   LIG     1      18.948  36.892  20.050  1.00  0.00     0.015 A 
ENDBRANCH   1  15
BRANCH  13  22
HETATM   22  O   LIG     1      13.748  35.862  20.456  1.00  0.00    -0.367 OA
HETATM   23  H   LIG     1      13.971  35.194  19.755  1.00  0.00     0.212 HD
ENDBRANCH  13  22
TORSDOF 2
ENDMDL
MODEL 5
REMARK VINA RESULT:      -6.0     14.934     15.983
REMARK  2 active torsions:
REMARK  status: ('A' for Active; 'I' for Inactive)
REMARK    1  A    between atoms: C_7  and  C_8 
REMARK    2  A    between atoms: C_20  and  O_21 
ROOT
HETATM    1  C   LIG     1      24.918  22.152  23.464  1.00  0.00     0.079 C 
HETATM    2  C   LIG     1      24.273  21.696  24.732  1.00  0.00     0.022 A 
HETATM    3  C   LIG     1      23.548  20.489  24.713  1.00  0.00     0.040 A 
HETATM    4  C   LIG     1      22.861  20.048  25.847  1.00  0.00     0.035 A 
HETATM    5 CL   LIG     1      21.963  18.542  25.797  1.00  0.00    -0.084 Cl
HETATM    6  C   LIG     1      22.880  20.810  27.014  1.00  0.00     0.026 A 
HETATM    7  C   LIG     1      23.595  22.007  27.054  1.00  0.00     0.032 A 
HETATM    8  C   LIG     1      24.311  22.457  25.932  1.00  0.00     0.047 A 
HETATM    9  N   LIG     1      25.021  23.703  26.038  1.00  0.00    -0.323 N 
HETATM   10  C   LIG     1      26.321  23.921  25.481  1.00  0.00     0.272 C 
HETATM   11  O   LIG     1      26.925  25.001  25.723  1.00  0.00    -0.268 OA
HETATM   12  N   LIG     1      26.111  22.670  23.443  1.00  0.00    -0.247 NA
HETATM   13  C   LIG     1      26.958  22.882  24.611  1.00  0.00     0.335 C 
HETATM   14  H   LIG     1      24.660  24.421  26.706  1.00  0.00     0.169 HD
ENDROOT
BRANCH   1  15
HETATM   15  C   LIG     1      24.186  22.016  22.180  1.00  0.00     0.015 A 
HETATM   16  C   LIG     1      24.550  21.054  21.207  1.00  0.00     0.046 A 
HETATM   17 CL   LIG     1      25.844  19.890  21.479  1.00  0.00    -0.083 Cl
HETATM   18  C   LIG     1      23.836  20.975  20.005  1.00  0.00     0.025 A 
HETATM   19  C   LIG     1      22.766  21.837  19.759  1.00  0.00     0.002 A 
HETATM   20  C   LIG     1      22.397  22.782  20.716  1.00  0.00     0.001 A 
HETATM   21  C   LIG     1      23.100  22.871  21.919  1.00  0.00     0.015 A 
ENDBRANCH   1  15
BRANCH  13  22
HETATM   22  O   LIG     1      28.227  23.309  24.193  1.00  0.00    -0.367 OA
HETATM   23  H   LIG     1      28.114  24.235  23.853  1.00  0.00     0.212 HD
ENDBRANCH  13  22
TORSDOF 2
ENDMDL
MODEL 6
REMARK VINA RESULT:      -5.9     14.065     15.356
REMARK  2 active torsions:
REMARK  status: ('A' for Active; 'I' for Inactive)
REMARK    1  A    between atoms: C_7  and  C_8 
REMARK    2  A    between atoms: C_20  and  O_21 
ROOT
HETATM    1  C   LIG     1      25.489  22.952  19.801  1.00  0.00     0.079 C 
HETATM    2  C   LIG     1      25.981  22.114  18.667  1.00  0.00     0.022 A 
HETATM    3  C   LIG     1      25.108  21.150  18.125  1.00  0.00     0.040 A 
HETATM    4  C   LIG     1      25.535  20.286  17.114  1.00  0.00     0.035 A 
HETATM    5 CL   LIG     1      24.430  19.091  16.458  1.00  0.00    -0.084 Cl
HETATM    6  C   LIG     1      26.841  20.366  16.633  1.00  0.00     0.026 A 
HETATM    7  C   LIG     1      27.719  21.316  17.154  1.00  0.00     0.032 A 
HETATM    8  C   LIG     1      27.303  22.209  18.155  1.00  0.00     0.047 A 
HETATM    9  N   LIG     1      28.261  23.159  18.653  1.00  0.00    -0.323 N 
HETATM   10  C   LIG     1      27.937  24.520  18.957  1.00  0.00     0.272 C 
HETATM   11  O   LIG     1      28.860  25.320  19.274  1.00  0.00    -0.268 OA
HETATM   12  N   LIG     1      25.741  24.226  19.879  1.00  0.00    -0.247 NA
HETATM   13  C   LIG     1      26.517  24.992  18.911  1.00  0.00     0.335 C 
HETATM   14  H   LIG     1      29.274  22.905  18.617  1.00  0.00     0.169 HD
ENDROOT
BRANCH   1  15
HETATM   15  C   LIG     1      24.688  22.324  20.882  1.00  0.00     0.015 A 
HETATM   16  C   LIG     1      25.274  21.483  21.857  1.00  0.00     0.046 A 
HETATM   17 CL   LIG     1      27.009  21.182  21.916  1.00  0.00    -0.083 Cl
HETATM   18  C   LIG     1      24.473  20.903  22.849  1.00  0.00     0.025 A 
HETATM   19  C   LIG     1      23.100  21.151  22.884  1.00  0.00     0.002 A 
HETATM   20  C   LIG     1      22.516  21.984  21.930  1.00  0.00     0.001 A 
HETATM   21  C   LIG     1      23.304  22.569  20.936  1.00  0.00     0.015 A 
ENDBRANCH   1  15
BRANCH  13  22
HETATM   22  O   LIG     1      26.447  26.355  19.233  1.00  0.00    -0.367 OA
HETATM   23  H   LIG     1      26.802  26.445  20.156  1.00  0.00     0.212 HD
ENDBRANCH  13  22
TORSDOF 2
ENDMDL
MODEL 7
REMARK VINA RESULT:      -5.8     14.547     15.777
REMARK  2 active torsions:
REMARK  status: ('A' for Active; 'I' for Inactive)
REMARK    1  A    between atoms: C_7  and  C_8 
REMARK    2  A    between atoms: C_20  and  O_21 
ROOT
HETATM    1  C   LIG     1      26.864  23.190  21.135  1.00  0.00     0.079 C 
HETATM    2  C   LIG     1      25.443  22.732  21.099  1.00  0.00     0.022 A 
HETATM    3  C   LIG     1      24.891  22.372  19.854  1.00  0.00     0.040 A 
HETATM    4  C   LIG     1      23.547  22.008  19.744  1.00  0.00     0.035 A 
HETATM    5 CL   LIG     1      22.884  21.567  18.181  1.00  0.00    -0.084 Cl
HETATM    6  C   LIG     1      22.732  22.006  20.874  1.00  0.00     0.026 A 
HETATM    7  C   LIG     1      23.259  22.356  22.117  1.00  0.00     0.032 A 
HETATM    8  C   LIG     1      24.613  22.703  22.252  1.00  0.00     0.047 A 
HETATM    9  N   LIG     1      25.092  23.061  23.560  1.00  0.00    -0.323 N 
HETATM   10  C   LIG     1      26.366  22.656  24.073  1.00  0.00     0.272 C 
HETATM   11  O   LIG     1      26.658  22.909  25.273  1.00  0.00    -0.268 OA
HETATM   12  N   LIG     1      27.685  22.822  22.075  1.00  0.00    -0.247 NA
HETATM   13  C   LIG     1      27.348  21.948  23.192  1.00  0.00     0.335 C 
HETATM   14  H   LIG     1      24.412  23.473  24.239  1.00  0.00     0.169 HD
ENDROOT
BRANCH   1  15
HETATM   15  C   LIG     1      27.370  24.095  20.072  1.00  0.00     0.015 A 
HETATM   16  C   LIG     1      28.109  23.611  18.965  1.00  0.00     0.046 A 
HETATM   17 CL   LIG     1      28.413  21.894  18.718  1.00  0.00    -0.083 Cl
HETATM   18  C   LIG     1      28.576  24.507  17.995  1.00  0.00     0.025 A 
HETATM   19  C   LIG     1      28.317  25.874  18.111  1.00  0.00     0.002 A 
HETATM   20  C   LIG     1      27.584  26.357  19.196  1.00  0.00     0.001 A 
HETATM   21  C   LIG     1      27.112  25.474  20.169  1.00  0.00     0.015 A 
ENDBRANCH   1  15
BRANCH  13  22
HETATM   22  O   LIG     1      28.513  21.643  23.911  1.00  0.00    -0.367 OA
HETATM   23  H   LIG     1      28.218  21.194  24.747  1.00  0.00     0.212 HD
ENDBRANCH  13  22
TORSDOF 2
ENDMDL
MODEL 8
REMARK VINA RESULT:      -5.7     13.882     15.408
REMARK  2 active torsions:
REMARK  status: ('A' for Active; 'I' for Inactive)
REMARK    1  A    between atoms: C_7  and  C_8 
REMARK    2  A    between atoms: C_20  and  O_21 
ROOT
HETATM    1  C   LIG     1      25.625  23.131  20.128  1.00  0.00     0.079 C 
HETATM    2  C   LIG     1      25.262  22.073  19.139  1.00  0.00     0.022 A 
HETATM    3  C   LIG     1      26.294  21.498  18.371  1.00  0.00     0.040 A 
HETATM    4  C   LIG     1      26.009  20.557  17.378  1.00  0.00     0.035 A 
HETATM    5 CL   LIG     1      27.312  19.859  16.434  1.00  0.00    -0.084 Cl
HETATM    6  C   LIG     1      24.690  20.183  17.131  1.00  0.00     0.026 A 
HETATM    7  C   LIG     1      23.654  20.738  17.882  1.00  0.00     0.032 A 
HETATM    8  C   LIG     1      23.920  21.668  18.901  1.00  0.00     0.047 A 
HETATM    9  N   LIG     1      22.807  22.207  19.633  1.00  0.00    -0.323 N 
HETATM   10  C   LIG     1      22.826  22.433  21.046  1.00  0.00     0.272 C 
HETATM   11  O   LIG     1      21.767  22.793  21.630  1.00  0.00    -0.268 OA
HETATM   12  N   LIG     1      25.090  23.182  21.313  1.00  0.00    -0.247 NA
HETATM   13  C   LIG     1      24.091  22.253  21.826  1.00  0.00     0.335 C 
HETATM   14  H   LIG     1      21.880  22.262  19.152  1.00  0.00     0.169 HD
ENDROOT
BRANCH   1  15
HETATM   15  C   LIG     1      26.624  24.166  19.761  1.00  0.00     0.015 A 
HETATM   16  C   LIG     1      27.976  24.081  20.172  1.00  0.00     0.046 A 
HETATM   17 CL   LIG     1      28.596  22.704  21.079  1.00  0.00    -0.083 Cl
HETATM   18  C   LIG     1      28.878  25.090  19.811  1.00  0.00     0.025 A 
HETATM   19  C   LIG     1      28.454  26.178  19.047  1.00  0.00     0.002 A 
HETATM   20  C   LIG     1      27.125  26.265  18.632  1.00  0.00     0.001 A 
HETATM   21  C   LIG     1      26.216  25.265  18.984  1.00  0.00     0.015 A 
ENDBRANCH   1  15
BRANCH  13  22
HETATM   22  O   LIG     1      23.865  22.518  23.185  1.00  0.00    -0.367 OA
HETATM   23  H   LIG     1      23.434  21.706  23.562  1.00  0.00     0.212 HD
ENDBRANCH  13  22
TORSDOF 2
ENDMDL
MODEL 9
REMARK VINA RESULT:      -5.7      3.261      5.667
REMARK  2 active torsions:
REMARK  status: ('A' for Active; 'I' for Inactive)
REMARK    1  A    between atoms: C_7  and  C_8 
REMARK    2  A    between atoms: C_20  and  O_21 
ROOT
HETATM    1  C   LIG     1      15.239  31.515  15.360  1.00  0.00     0.079 C 
HETATM    2  C   LIG     1      14.738  30.230  14.787  1.00  0.00     0.022 A 
HETATM    3  C   LIG     1      15.657  29.397  14.120  1.00  0.00     0.040 A 
HETATM    4  C   LIG     1      15.235  28.219  13.498  1.00  0.00     0.035 A 
HETATM    5 CL   LIG     1      16.399  27.200  12.671  1.00  0.00    -0.084 Cl
HETATM    6  C   LIG     1      13.889  27.860  13.526  1.00  0.00     0.026 A 
HETATM    7  C   LIG     1      12.964  28.670  14.183  1.00  0.00     0.032 A 
HETATM    8  C   LIG     1      13.370  29.846  14.834  1.00  0.00     0.047 A 
HETATM    9  N   LIG     1      12.365  30.640  15.488  1.00  0.00    -0.323 N 
HETATM   10  C   LIG     1      12.562  31.277  16.754  1.00  0.00     0.272 C 
HETATM   11  O   LIG     1      11.590  31.853  17.315  1.00  0.00    -0.268 OA
HETATM   12  N   LIG     1      14.855  31.948  16.526  1.00  0.00    -0.247 NA
HETATM   13  C   LIG     1      13.910  31.271  17.406  1.00  0.00     0.335 C 
HETATM   14  H   LIG     1      11.388  30.599  15.119  1.00  0.00     0.169 HD
ENDROOT
BRANCH   1  15
HETATM   15  C   LIG     1      16.204  32.336  14.587  1.00  0.00     0.015 A 
HETATM   16  C   LIG     1      16.675  33.584  15.060  1.00  0.00     0.046 A 
HETATM   17 CL   LIG     1      16.219  34.221  16.638  1.00  0.00    -0.083 Cl
HETATM   18  C   LIG     1      17.575  34.328  14.286  1.00  0.00     0.025 A 
HETATM   19  C   LIG     1      18.013  33.846  13.052  1.00  0.00     0.002 A 
HETATM   20  C   LIG     1      17.559  32.614  12.582  1.00  0.00     0.001 A 
HETATM   21  C   LIG     1      16.662  31.862  13.344  1.00  0.00     0.015 A 
ENDBRANCH   1  15
BRANCH  13  22
HETATM   22  O   LIG     1      13.858  31.942  18.636  1.00  0.00    -0.367 OA
HETATM   23  H   LIG     1      14.099  32.888  18.451  1.00  0.00     0.212 HD
ENDBRANCH  13  22
TORSDOF 2
ENDMDL
MODEL 10
REMARK VINA RESULT:      -5.6     13.902     15.282
REMARK  2 active torsions:
REMARK  status: ('A' for Active; 'I' for Inactive)
REMARK    1  A    between atoms: C_7  and  C_8 
REMARK    2  A    between atoms: C_20  and  O_21 
ROOT
HETATM    1  C   LIG     1      24.908  22.002  20.100  1.00  0.00     0.079 C 
HETATM    2  C   LIG     1      24.646  21.119  18.925  1.00  0.00     0.022 A 
HETATM    3  C   LIG     1      23.450  20.375  18.906  1.00  0.00     0.040 A 
HETATM    4  C   LIG     1      23.183  19.476  17.871  1.00  0.00     0.035 A 
HETATM    5 CL   LIG     1      21.687  18.558  17.872  1.00  0.00    -0.084 Cl
HETATM    6  C   LIG     1      24.109  19.300  16.844  1.00  0.00     0.026 A 
HETATM    7  C   LIG     1      25.297  20.029  16.843  1.00  0.00     0.032 A 
HETATM    8  C   LIG     1      25.575  20.955  17.862  1.00  0.00     0.047 A 
HETATM    9  N   LIG     1      26.822  21.669  17.805  1.00  0.00    -0.323 N 
HETATM   10  C   LIG     1      26.952  23.057  18.131  1.00  0.00     0.272 C 
HETATM   11  O   LIG     1      28.056  23.637  17.938  1.00  0.00    -0.268 OA
HETATM   12  N   LIG     1      25.416  23.193  19.970  1.00  0.00    -0.247 NA
HETATM   13  C   LIG     1      25.795  23.813  18.706  1.00  0.00     0.335 C 
HETATM   14  H   LIG     1      27.631  21.212  17.327  1.00  0.00     0.169 HD
ENDROOT
BRANCH   1  15
HETATM   15  C   LIG     1      24.587  21.519  21.466  1.00  0.00     0.015 A 
HETATM   16  C   LIG     1      23.385  21.876  22.124  1.00  0.00     0.046 A 
HETATM   17 CL   LIG     1      22.142  22.850  21.343  1.00  0.00    -0.083 Cl
HETATM   18  C   LIG     1      23.133  21.405  23.419  1.00  0.00     0.025 A 
HETATM   19  C   LIG     1      24.059  20.584  24.065  1.00  0.00     0.002 A 
HETATM   20  C   LIG     1      25.242  20.223  23.421  1.00  0.00     0.001 A 
HETATM   21  C   LIG     1      25.505  20.685  22.130  1.00  0.00     0.015 A 
ENDBRANCH   1  15
BRANCH  13  22
HETATM   22  O   LIG     1      26.154  25.150  18.934  1.00  0.00    -0.367 OA
HETATM   23  H   LIG     1      27.125  25.219  18.735  1.00  0.00     0.212 HD
ENDBRANCH  13  22
TORSDOF 2
ENDMDL
MODEL 11
REMARK VINA RESULT:      -5.6     14.235     15.545
REMARK  2 active torsions:
REMARK  status: ('A' for Active; 'I' for Inactive)
REMARK    1  A    between atoms: C_7  and  C_8 
REMARK    2  A    between atoms: C_20  and  O_21 
ROOT
HETATM    1  C   LIG     1      25.078  22.674  20.375  1.00  0.00     0.079 C 
HETATM    2  C   LIG     1      24.732  22.092  21.705  1.00  0.00     0.022 A 
HETATM    3  C   LIG     1      24.910  22.894  22.849  1.00  0.00     0.040 A 
HETATM    4  C   LIG     1      24.676  22.382  24.128  1.00  0.00     0.035 A 
HETATM    5 CL   LIG     1      24.909  23.401  25.536  1.00  0.00    -0.084 Cl
HETATM    6  C   LIG     1      24.268  21.058  24.284  1.00  0.00     0.026 A 
HETATM    7  C   LIG     1      24.083  20.248  23.164  1.00  0.00     0.032 A 
HETATM    8  C   LIG     1      24.291  20.750  21.869  1.00  0.00     0.047 A 
HETATM    9  N   LIG     1      24.089  19.860  20.758  1.00  0.00    -0.323 N 
HETATM   10  C   LIG     1      23.462  20.256  19.533  1.00  0.00     0.272 C 
HETATM   11  O   LIG     1      23.214  19.384  18.655  1.00  0.00    -0.268 OA
HETATM   12  N   LIG     1      24.337  22.481  19.322  1.00  0.00    -0.247 NA
HETATM   13  C   LIG     1      23.112  21.691  19.289  1.00  0.00     0.335 C 
HETATM   14  H   LIG     1      24.233  18.837  20.913  1.00  0.00     0.169 HD
ENDROOT
BRANCH   1  15
HETATM   15  C   LIG     1      26.303  23.501  20.232  1.00  0.00     0.015 A 
HETATM   16  C   LIG     1      27.599  22.949  20.367  1.00  0.00     0.046 A 
HETATM   17 CL   LIG     1      27.863  21.227  20.629  1.00  0.00    -0.083 Cl
HETATM   18  C   LIG     1      28.724  23.773  20.237  1.00  0.00     0.025 A 
HETATM   19  C   LIG     1      28.575  25.136  19.974  1.00  0.00     0.002 A 
HETATM   20  C   LIG     1      27.301  25.686  19.834  1.00  0.00     0.001 A 
HETATM   21  C   LIG     1      26.172  24.875  19.960  1.00  0.00     0.015 A 
ENDBRANCH   1  15
BRANCH  13  22
HETATM   22  O   LIG     1      22.501  21.835  18.034  1.00  0.00    -0.367 OA
HETATM   23  H   LIG     1      21.666  22.351  18.186  1.00  0.00     0.212 HD
ENDBRANCH  13  22
TORSDOF 2
ENDMDL
MODEL 12
REMARK VINA RESULT:      -5.5     14.495     15.445
REMARK  2 active torsions:
REMARK  status: ('A' for Active; 'I' for Inactive)
REMARK    1  A    between atoms: C_7  and  C_8 
REMARK    2  A    between atoms: C_20  and  O_21 
ROOT
HETATM    1  C   LIG     1      25.302  22.557  21.551  1.00  0.00     0.079 C 
HETATM    2  C   LIG     1      26.458  23.494  21.425  1.00  0.00     0.022 A 
HETATM    3  C   LIG     1      26.412  24.477  20.417  1.00  0.00     0.040 A 
HETATM    4  C   LIG     1      27.494  25.334  20.202  1.00  0.00     0.035 A 
HETATM    5 CL   LIG     1      27.412  26.547  18.938  1.00  0.00    -0.084 Cl
HETATM    6  C   LIG     1      28.641  25.217  20.984  1.00  0.00     0.026 A 
HETATM    7  C   LIG     1      28.706  24.252  21.989  1.00  0.00     0.032 A 
HETATM    8  C   LIG     1      27.621  23.396  22.237  1.00  0.00     0.047 A 
HETATM    9  N   LIG     1      27.755  22.420  23.284  1.00  0.00    -0.323 N 
HETATM   10  C   LIG     1      26.702  22.087  24.194  1.00  0.00     0.272 C 
HETATM   11  O   LIG     1      26.939  21.310  25.158  1.00  0.00    -0.268 OA
HETATM   12  N   LIG     1      24.821  22.203  22.707  1.00  0.00    -0.247 NA
HETATM   13  C   LIG     1      25.327  22.648  24.000  1.00  0.00     0.335 C 
HETATM   14  H   LIG     1      28.713  22.071  23.513  1.00  0.00     0.169 HD
ENDROOT
BRANCH   1  15
HETATM   15  C   LIG     1      24.672  22.003  20.326  1.00  0.00     0.015 A 
HETATM   16  C   LIG     1      23.281  22.106  20.086  1.00  0.00     0.046 A 
HETATM   17 CL   LIG     1      22.203  22.973  21.177  1.00  0.00    -0.083 Cl
HETATM   18  C   LIG     1      22.732  21.554  18.922  1.00  0.00     0.025 A 
HETATM   19  C   LIG     1      23.548  20.904  17.995  1.00  0.00     0.002 A 
HETATM   20  C   LIG     1      24.921  20.803  18.221  1.00  0.00     0.001 A 
HETATM   21  C   LIG     1      25.480  21.350  19.378  1.00  0.00     0.015 A 
ENDBRANCH   1  15
BRANCH  13  22
HETATM   22  O   LIG     1      24.470  22.194  25.014  1.00  0.00    -0.367 OA
HETATM   23  H   LIG     1      23.578  22.071  24.595  1.00  0.00     0.212 HD
ENDBRANCH  13  22
TORSDOF 2
ENDMDL
MODEL 13
REMARK VINA RESULT:      -5.5     14.306     15.643
REMARK  2 active torsions:
REMARK  status: ('A' for Active; 'I' for Inactive)
REMARK    1  A    between atoms: C_7  and  C_8 
REMARK    2  A    between atoms: C_20  and  O_21 
ROOT
HETATM    1  C   LIG     1      26.971  24.089  21.092  1.00  0.00     0.079 C 
HETATM    2  C   LIG     1      25.791  23.362  20.536  1.00  0.00     0.022 A 
HETATM    3  C   LIG     1      24.804  22.911  21.433  1.00  0.00     0.040 A 
HETATM    4  C   LIG     1      23.715  22.161  20.983  1.00  0.00     0.035 A 
HETATM    5 CL   LIG     1      22.500  21.609  22.122  1.00  0.00    -0.084 Cl
HETATM    6  C   LIG     1      23.599  21.843  19.631  1.00  0.00     0.026 A 
HETATM    7  C   LIG     1      24.564  22.283  18.725  1.00  0.00     0.032 A 
HETATM    8  C   LIG     1      25.655  23.057  19.154  1.00  0.00     0.047 A 
HETATM    9  N   LIG     1      26.618  23.472  18.170  1.00  0.00    -0.323 N 
HETATM   10  C   LIG     1      27.220  24.771  18.153  1.00  0.00     0.272 C 
HETATM   11  O   LIG     1      27.962  25.096  17.186  1.00  0.00    -0.268 OA
HETATM   12  N   LIG     1      27.473  25.139  20.511  1.00  0.00    -0.247 NA
HETATM   13  C   LIG     1      26.980  25.733  19.274  1.00  0.00     0.335 C 
HETATM   14  H   LIG     1      26.748  22.873  17.324  1.00  0.00     0.169 HD
ENDROOT
BRANCH   1  15
HETATM   15  C   LIG     1      27.603  23.608  22.346  1.00  0.00     0.015 A 
HETATM   16  C   LIG     1      28.368  22.417  22.392  1.00  0.00     0.046 A 
HETATM   17 CL   LIG     1      28.699  21.460  20.950  1.00  0.00    -0.083 Cl
HETATM   18  C   LIG     1      28.933  21.998  23.603  1.00  0.00     0.025 A 
HETATM   19  C   LIG     1      28.748  22.747  24.766  1.00  0.00     0.002 A 
HETATM   20  C   LIG     1      28.001  23.925  24.728  1.00  0.00     0.001 A 
HETATM   21  C   LIG     1      27.434  24.354  23.526  1.00  0.00     0.015 A 
ENDBRANCH   1  15
BRANCH  13  22
HETATM   22  O   LIG     1      27.659  26.937  19.034  1.00  0.00    -0.367 OA
HETATM   23  H   LIG     1      28.442  26.710  18.467  1.00  0.00     0.212 HD
ENDBRANCH  13  22
TORSDOF 2
ENDMDL
MODEL 14
REMARK VINA RESULT:      -5.4     14.470     15.852
REMARK  2 active torsions:
REMARK  status: ('A' for Active; 'I' for Inactive)
REMARK    1  A    between atoms: C_7  and  C_8 
REMARK    2  A    between atoms: C_20  and  O_21 
ROOT
HETATM    1  C   LIG     1      26.313  22.234  18.806  1.00  0.00     0.079 C 
HETATM    2  C   LIG     1      25.194  21.595  19.561  1.00  0.00     0.022 A 
HETATM    3  C   LIG     1      24.149  22.419  20.023  1.00  0.00     0.040 A 
HETATM    4  C   LIG     1      23.112  21.893  20.799  1.00  0.00     0.035 A 
HETATM    5 CL   LIG     1      21.824  22.941  21.365  1.00  0.00    -0.084 Cl
HETATM    6  C   LIG     1      23.108  20.540  21.131  1.00  0.00     0.026 A 
HETATM    7  C   LIG     1      24.131  19.707  20.680  1.00  0.00     0.032 A 
HETATM    8  C   LIG     1      25.171  20.210  19.880  1.00  0.00     0.047 A 
HETATM    9  N   LIG     1      26.199  19.300  19.455  1.00  0.00    -0.323 N 
HETATM   10  C   LIG     1      26.775  19.315  18.145  1.00  0.00     0.272 C 
HETATM   11  O   LIG     1      27.583  18.406  17.813  1.00  0.00    -0.268 OA
HETATM   12  N   LIG     1      26.839  21.682  17.751  1.00  0.00    -0.247 NA
HETATM   13  C   LIG     1      26.431  20.405  17.177  1.00  0.00     0.335 C 
HETATM   14  H   LIG     1      26.405  18.472  20.058  1.00  0.00     0.169 HD
ENDROOT
BRANCH   1  15
HETATM   15  C   LIG     1      26.856  23.538  19.264  1.00  0.00     0.015 A 
HETATM   16  C   LIG     1      27.663  23.649  20.421  1.00  0.00     0.046 A 
HETATM   17 CL   LIG     1      28.155  22.242  21.360  1.00  0.00    -0.083 Cl
HETATM   18  C   LIG     1      28.139  24.905  20.820  1.00  0.00     0.025 A 
HETATM   19  C   LIG     1      27.825  26.047  20.082  1.00  0.00     0.002 A 
HETATM   20  C   LIG     1      27.036  25.944  18.936  1.00  0.00     0.001 A 
HETATM   21  C   LIG     1      26.555  24.698  18.528  1.00  0.00     0.015 A 
ENDBRANCH   1  15
BRANCH  13  22
HETATM   22  O   LIG     1      27.103  20.206  15.962  1.00  0.00    -0.367 OA
HETATM   23  H   LIG     1      27.633  21.029  15.796  1.00  0.00     0.212 HD
ENDBRANCH  13  22
TORSDOF 2
ENDMDL
MODEL 15
REMARK VINA RESULT:      -5.3     13.999     14.828
REMARK  2 active torsions:
REMARK  status: ('A' for Active; 'I' for Inactive)
REMARK    1  A    between atoms: C_7  and  C_8 
REMARK    2  A    between atoms: C_20  and  O_21 
ROOT
HETATM    1  C   LIG     1      25.657  21.793  18.716  1.00  0.00     0.079 C 
HETATM    2  C   LIG     1      25.818  21.732  20.200  1.00  0.00     0.022 A 
HETATM    3  C   LIG     1      25.921  20.464  20.805  1.00  0.00     0.040 A 
HETATM    4  C   LIG     1      25.998  20.338  22.194  1.00  0.00     0.035 A 
HETATM    5 CL   LIG     1      26.122  18.748  22.924  1.00  0.00    -0.084 Cl
HETATM    6  C   LIG     1      25.965  21.475  23.000  1.00  0.00     0.026 A 
HETATM    7  C   LIG     1      25.867  22.739  22.420  1.00  0.00     0.032 A 
HETATM    8  C   LIG     1      25.811  22.889  21.025  1.00  0.00     0.047 A 
HETATM    9  N   LIG     1      25.703  24.220  20.491  1.00  0.00    -0.323 N 
HETATM   10  C   LIG     1      26.406  24.663  19.326  1.00  0.00     0.272 C 
HETATM   11  O   LIG     1      26.351  25.879  18.995  1.00  0.00    -0.268 OA
HETATM   12  N   LIG     1      26.282  22.673  17.989  1.00  0.00    -0.247 NA
HETATM   13  C   LIG     1      27.191  23.693  18.499  1.00  0.00     0.335 C 
HETATM   14  H   LIG     1      25.243  24.951  21.079  1.00  0.00     0.169 HD
ENDROOT
BRANCH   1  15
HETATM   15  C   LIG     1      24.757  20.828  18.036  1.00  0.00     0.015 A 
HETATM   16  C   LIG     1      23.358  20.827  18.253  1.00  0.00     0.046 A 
HETATM   17 CL   LIG     1      22.567  22.021  19.278  1.00  0.00    -0.083 Cl
HETATM   18  C   LIG     1      22.553  19.887  17.597  1.00  0.00     0.025 A 
HETATM   19  C   LIG     1      23.120  18.952  16.730  1.00  0.00     0.002 A 
HETATM   20  C   LIG     1      24.497  18.951  16.507  1.00  0.00     0.001 A 
HETATM   21  C   LIG     1      25.311  19.884  17.153  1.00  0.00     0.015 A 
ENDBRANCH   1  15
BRANCH  13  22
HETATM   22  O   LIG     1      27.799  24.354  17.421  1.00  0.00    -0.367 OA
HETATM   23  H   LIG     1      28.388  25.050  17.814  1.00  0.00     0.212 HD
ENDBRANCH  13  22
TORSDOF 2
ENDMDL
MODEL 16
REMARK VINA RESULT:      -5.2     14.273     15.609
REMARK  2 active torsions:
REMARK  status: ('A' for Active; 'I' for Inactive)
REMARK    1  A    between atoms: C_7  and  C_8 
REMARK    2  A    between atoms: C_20  and  O_21 
ROOT
HETATM    1  C   LIG     1      26.332  22.160  19.393  1.00  0.00     0.079 C 
HETATM    2  C   LIG     1      25.178  21.383  18.850  1.00  0.00     0.022 A 
HETATM    3  C   LIG     1      25.403  20.544  17.742  1.00  0.00     0.040 A 
HETATM    4  C   LIG     1      24.349  19.849  17.143  1.00  0.00     0.035 A 
HETATM    5 CL   LIG     1      24.656  18.813  15.762  1.00  0.00    -0.084 Cl
HETATM    6  C   LIG     1      23.053  19.989  17.637  1.00  0.00     0.026 A 
HETATM    7  C   LIG     1      22.809  20.813  18.735  1.00  0.00     0.032 A 
HETATM    8  C   LIG     1      23.858  21.502  19.366  1.00  0.00     0.047 A 
HETATM    9  N   LIG     1      23.538  22.340  20.489  1.00  0.00    -0.323 N 
HETATM   10  C   LIG     1      24.349  22.429  21.665  1.00  0.00     0.272 C 
HETATM   11  O   LIG     1      23.935  23.094  22.654  1.00  0.00    -0.268 OA
HETATM   12  N   LIG     1      26.530  22.302  20.671  1.00  0.00    -0.247 NA
HETATM   13  C   LIG     1      25.682  21.750  21.721  1.00  0.00     0.335 C 
HETATM   14  H   LIG     1      22.582  22.760  20.535  1.00  0.00     0.169 HD
ENDROOT
BRANCH   1  15
HETATM   15  C   LIG     1      27.291  22.798  18.456  1.00  0.00     0.015 A 
HETATM   16  C   LIG     1      27.139  24.138  18.025  1.00  0.00     0.046 A 
HETATM   17 CL   LIG     1      25.851  25.177  18.630  1.00  0.00    -0.083 Cl
HETATM   18  C   LIG     1      28.063  24.691  17.129  1.00  0.00     0.025 A 
HETATM   19  C   LIG     1      29.135  23.930  16.660  1.00  0.00     0.002 A 
HETATM   20  C   LIG     1      29.295  22.611  17.085  1.00  0.00     0.001 A 
HETATM   21  C   LIG     1      28.381  22.048  17.979  1.00  0.00     0.015 A 
ENDBRANCH   1  15
BRANCH  13  22
HETATM   22  O   LIG     1      26.286  21.966  22.968  1.00  0.00    -0.367 OA
HETATM   23  H   LIG     1      25.709  22.614  23.452  1.00  0.00     0.212 HD
ENDBRANCH  13  22
TORSDOF 2
ENDMDL
MODEL 17
REMARK VINA RESULT:      -5.2     14.599     15.659
REMARK  2 active torsions:
REMARK  status: ('A' for Active; 'I' for Inactive)
REMARK    1  A    between atoms: C_7  and  C_8 
REMARK    2  A    between atoms: C_20  and  O_21 
ROOT
HETATM    1  C   LIG     1      26.012  22.730  18.811  1.00  0.00     0.079 C 
HETATM    2  C   LIG     1      27.372  22.309  18.360  1.00  0.00     0.022 A 
HETATM    3  C   LIG     1      27.465  21.352  17.330  1.00  0.00     0.040 A 
HETATM    4  C   LIG     1      28.706  20.863  16.917  1.00  0.00     0.035 A 
HETATM    5 CL   LIG     1      28.794  19.669  15.635  1.00  0.00    -0.084 Cl
HETATM    6  C   LIG     1      29.873  21.316  17.530  1.00  0.00     0.026 A 
HETATM    7  C   LIG     1      29.803  22.265  18.549  1.00  0.00     0.032 A 
HETATM    8  C   LIG     1      28.567  22.787  18.964  1.00  0.00     0.047 A 
HETATM    9  N   LIG     1      28.564  23.758  20.024  1.00  0.00    -0.323 N 
HETATM   10  C   LIG     1      27.717  24.911  20.037  1.00  0.00     0.272 C 
HETATM   11  O   LIG     1      27.863  25.777  20.943  1.00  0.00    -0.268 OA
HETATM   12  N   LIG     1      25.727  23.971  19.080  1.00  0.00    -0.247 NA
HETATM   13  C   LIG     1      26.660  25.087  18.991  1.00  0.00     0.335 C 
HETATM   14  H   LIG     1      29.340  23.727  20.724  1.00  0.00     0.169 HD
ENDROOT
BRANCH   1  15
HETATM   15  C   LIG     1      24.943  21.712  18.963  1.00  0.00     0.015 A 
HETATM   16  C   LIG     1      24.972  20.743  19.995  1.00  0.00     0.046 A 
HETATM   17 CL   LIG     1      26.231  20.721  21.226  1.00  0.00    -0.083 Cl
HETATM   18  C   LIG     1      23.945  19.794  20.088  1.00  0.00     0.025 A 
HETATM   19  C   LIG     1      22.893  19.798  19.171  1.00  0.00     0.002 A 
HETATM   20  C   LIG     1      22.854  20.754  18.156  1.00  0.00     0.001 A 
HETATM   21  C   LIG     1      23.870  21.706  18.053  1.00  0.00     0.015 A 
ENDBRANCH   1  15
BRANCH  13  22
HETATM   22  O   LIG     1      25.967  26.289  19.199  1.00  0.00    -0.367 OA
HETATM   23  H   LIG     1      25.197  26.282  18.571  1.00  0.00     0.212 HD
ENDBRANCH  13  22
TORSDOF 2
ENDMDL
MODEL 18
REMARK VINA RESULT:      -5.2     14.516     15.539
REMARK  2 active torsions:
REMARK  status: ('A' for Active; 'I' for Inactive)
REMARK    1  A    between atoms: C_7  and  C_8 
REMARK    2  A    between atoms: C_20  and  O_21 
ROOT
HETATM    1  C   LIG     1      25.792  23.191  20.713  1.00  0.00     0.079 C 
HETATM    2  C   LIG     1      26.412  23.424  22.051  1.00  0.00     0.022 A 
HETATM    3  C   LIG     1      27.462  24.359  22.144  1.00  0.00     0.040 A 
HETATM    4  C   LIG     1      28.132  24.566  23.352  1.00  0.00     0.035 A 
HETATM    5 CL   LIG     1      29.439  25.733  23.441  1.00  0.00    -0.084 Cl
HETATM    6  C   LIG     1      27.769  23.838  24.484  1.00  0.00     0.026 A 
HETATM    7  C   LIG     1      26.730  22.911  24.414  1.00  0.00     0.032 A 
HETATM    8  C   LIG     1      26.029  22.704  23.215  1.00  0.00     0.047 A 
HETATM    9  N   LIG     1      24.973  21.728  23.209  1.00  0.00    -0.323 N 
HETATM   10  C   LIG     1      23.729  21.914  22.524  1.00  0.00     0.272 C 
HETATM   11  O   LIG     1      22.810  21.063  22.669  1.00  0.00    -0.268 OA
HETATM   12  N   LIG     1      24.507  23.054  20.560  1.00  0.00    -0.247 NA
HETATM   13  C   LIG     1      23.523  23.101  21.635  1.00  0.00     0.335 C 
HETATM   14  H   LIG     1      25.033  20.931  23.882  1.00  0.00     0.169 HD
ENDROOT
BRANCH   1  15
HETATM   15  C   LIG     1      26.657  23.108  19.509  1.00  0.00     0.015 A 
HETATM   16  C   LIG     1      26.866  24.219  18.658  1.00  0.00     0.046 A 
HETATM   17 CL   LIG     1      26.186  25.807  19.004  1.00  0.00    -0.083 Cl
HETATM   18  C   LIG     1      27.680  24.086  17.526  1.00  0.00     0.025 A 
HETATM   19  C   LIG     1      28.289  22.865  17.232  1.00  0.00     0.002 A 
HETATM   20  C   LIG     1      28.093  21.767  18.070  1.00  0.00     0.001 A 
HETATM   21  C   LIG     1      27.285  21.887  19.202  1.00  0.00     0.015 A 
ENDBRANCH   1  15
BRANCH  13  22
HETATM   22  O   LIG     1      22.233  23.077  21.084  1.00  0.00    -0.367 OA
HETATM   23  H   LIG     1      22.007  24.017  20.855  1.00  0.00     0.212 HD
ENDBRANCH  13  22
TORSDOF 2
ENDMDL
MODEL 19
REMARK VINA RESULT:      -5.0     15.266     16.175
REMARK  2 active torsions:
REMARK  status: ('A' for Active; 'I' for Inactive)
REMARK    1  A    between atoms: C_7  and  C_8 
REMARK    2  A    between atoms: C_20  and  O_21 
ROOT
HETATM    1  C   LIG     1      26.751  22.361  22.401  1.00  0.00     0.079 C 
HETATM    2  C   LIG     1      27.284  23.414  23.317  1.00  0.00     0.022 A 
HETATM    3  C   LIG     1      26.631  23.617  24.548  1.00  0.00     0.040 A 
HETATM    4  C   LIG     1      27.035  24.636  25.414  1.00  0.00     0.035 A 
HETATM    5 CL   LIG     1      26.203  24.870  26.941  1.00  0.00    -0.084 Cl
HETATM    6  C   LIG     1      28.092  25.473  25.060  1.00  0.00     0.026 A 
HETATM    7  C   LIG     1      28.754  25.287  23.847  1.00  0.00     0.032 A 
HETATM    8  C   LIG     1      28.378  24.254  22.972  1.00  0.00     0.047 A 
HETATM    9  N   LIG     1      29.097  24.121  21.734  1.00  0.00    -0.323 N 
HETATM   10  C   LIG     1      29.472  22.860  21.171  1.00  0.00     0.272 C 
HETATM   11  O   LIG     1      30.207  22.834  20.145  1.00  0.00    -0.268 OA
HETATM   12  N   LIG     1      27.535  21.562  21.738  1.00  0.00    -0.247 NA
HETATM   13  C   LIG     1      28.992  21.581  21.784  1.00  0.00     0.335 C 
HETATM   14  H   LIG     1      29.529  24.977  21.320  1.00  0.00     0.169 HD
ENDROOT
BRANCH   1  15
HETATM   15  C   LIG     1      25.284  22.212  22.231  1.00  0.00     0.015 A 
HETATM   16  C   LIG     1      24.560  22.964  21.275  1.00  0.00     0.046 A 
HETATM   17 CL   LIG     1      25.352  24.072  20.158  1.00  0.00    -0.083 Cl
HETATM   18  C   LIG     1      23.174  22.797  21.163  1.00  0.00     0.025 A 
HETATM   19  C   LIG     1      22.501  21.892  21.986  1.00  0.00     0.002 A 
HETATM   20  C   LIG     1      23.209  21.143  22.926  1.00  0.00     0.001 A 
HETATM   21  C   LIG     1      24.592  21.299  23.047  1.00  0.00     0.015 A 
ENDBRANCH   1  15
BRANCH  13  22
HETATM   22  O   LIG     1      29.494  20.482  21.072  1.00  0.00    -0.367 OA
HETATM   23  H   LIG     1      30.308  20.182  21.554  1.00  0.00     0.212 HD
ENDBRANCH  13  22
TORSDOF 2
ENDMDL
MODEL 20
REMARK VINA RESULT:      -4.9     15.047     16.502
REMARK  2 active torsions:
REMARK  status: ('A' for Active; 'I' for Inactive)
REMARK    1  A    between atoms: C_7  and  C_8 
REMARK    2  A    between atoms: C_20  and  O_21 
ROOT
HETATM    1  C   LIG     1      26.266  21.767  21.773  1.00  0.00     0.079 C 
HETATM    2  C   LIG     1      26.149  22.604  20.542  1.00  0.00     0.022 A 
HETATM    3  C   LIG     1      26.827  23.839  20.510  1.00  0.00     0.040 A 
HETATM    4  C   LIG     1      26.695  24.700  19.418  1.00  0.00     0.035 A 
HETATM    5 CL   LIG     1      27.548  26.233  19.403  1.00  0.00    -0.084 Cl
HETATM    6  C   LIG     1      25.879  24.345  18.345  1.00  0.00     0.026 A 
HETATM    7  C   LIG     1      25.201  23.126  18.356  1.00  0.00     0.032 A 
HETATM    8  C   LIG     1      25.338  22.236  19.434  1.00  0.00     0.047 A 
HETATM    9  N   LIG     1      24.606  20.999  19.386  1.00  0.00    -0.323 N 
HETATM   10  C   LIG     1      25.146  19.746  19.817  1.00  0.00     0.272 C 
HETATM   11  O   LIG     1      24.484  18.689  19.629  1.00  0.00    -0.268 OA
HETATM   12  N   LIG     1      26.416  20.476  21.719  1.00  0.00    -0.247 NA
HETATM   13  C   LIG     1      26.480  19.687  20.495  1.00  0.00     0.335 C 
HETATM   14  H   LIG     1      23.714  20.974  18.844  1.00  0.00     0.169 HD
ENDROOT
BRANCH   1  15
HETATM   15  C   LIG     1      26.211  22.415  23.108  1.00  0.00     0.015 A 
HETATM   16  C   LIG     1      27.383  22.795  23.805  1.00  0.00     0.046 A 
HETATM   17 CL   LIG     1      28.991  22.608  23.111  1.00  0.00    -0.083 Cl
HETATM   18  C   LIG     1      27.279  23.391  25.069  1.00  0.00     0.025 A 
HETATM   19  C   LIG     1      26.027  23.614  25.645  1.00  0.00     0.002 A 
HETATM   20  C   LIG     1      24.868  23.247  24.961  1.00  0.00     0.001 A 
HETATM   21  C   LIG     1      24.958  22.654  23.700  1.00  0.00     0.015 A 
ENDBRANCH   1  15
BRANCH  13  22
HETATM   22  O   LIG     1      26.805  18.360  20.814  1.00  0.00    -0.367 OA
HETATM   23  H   LIG     1      27.033  18.351  21.781  1.00  0.00     0.212 HD
ENDBRANCH  13  22
TORSDOF 2
ENDMDL
