MODEL 1
REMARK VINA RESULT:      -8.4      0.000      0.000
REMARK  0 active torsions:
REMARK  status: ('A' for Active; 'I' for Inactive)
ROOT
HETATM    1  C   LIG     1      16.981  35.729  22.855  1.00  0.00    -0.015 A 
HETATM    2  C   LIG     1      17.387  35.869  24.219  1.00  0.00    -0.015 A 
HETATM    3  C   LIG     1      17.365  34.798  25.146  1.00  0.00     0.013 A 
HETATM    4  C   LIG     1      17.774  34.988  26.469  1.00  0.00     0.001 A 
HETATM    5  C   LIG     1      18.211  36.236  26.901  1.00  0.00     0.001 A 
HETATM    6  C   LIG     1      18.245  37.308  26.012  1.00  0.00     0.012 A 
HETATM    7  C   LIG     1      17.839  37.140  24.679  1.00  0.00    -0.025 A 
HETATM    8  C   LIG     1      17.882  38.233  23.806  1.00  0.00     0.013 A 
HETATM    9  C   LIG     1      17.486  38.097  22.481  1.00  0.00     0.013 A 
HETATM   10  C   LIG     1      17.038  36.864  21.996  1.00  0.00    -0.025 A 
HETATM   11  C   LIG     1      16.645  36.757  20.652  1.00  0.00     0.012 A 
HETATM   12  C   LIG     1      16.195  35.541  20.143  1.00  0.00     0.001 A 
HETATM   13  C   LIG     1      16.132  34.421  20.968  1.00  0.00     0.001 A 
HETATM   14  C   LIG     1      16.518  34.506  22.308  1.00  0.00     0.013 A 
ENDROOT
TORSDOF 0
ENDMDL
MODEL 2
REMARK VINA RESULT:      -8.4      0.009      4.405
REMARK  0 active torsions:
REMARK  status: ('A' for Active; 'I' for Inactive)
ROOT
HETATM    1  C   LIG     1      17.391  35.873  24.217  1.00  0.00    -0.015 A 
HETATM    2  C   LIG     1      16.988  35.733  22.852  1.00  0.00    -0.015 A 
HETATM    3  C   LIG     1      16.525  34.511  22.304  1.00  0.00     0.013 A 
HETATM    4  C   LIG     1      16.142  34.428  20.962  1.00  0.00     0.001 A 
HETATM    5  C   LIG     1      16.208  35.547  20.138  1.00  0.00     0.001 A 
HETATM    6  C   LIG     1      16.659  36.762  20.648  1.00  0.00     0.012 A 
HETATM    7  C   LIG     1      17.048  36.868  21.994  1.00  0.00    -0.025 A 
HETATM    8  C   LIG     1      17.497  38.101  22.481  1.00  0.00     0.013 A 
HETATM    9  C   LIG     1      17.889  38.236  23.807  1.00  0.00     0.013 A 
HETATM   10  C   LIG     1      17.841  37.143  24.678  1.00  0.00    -0.025 A 
HETATM   11  C   LIG     1      18.245  37.311  26.013  1.00  0.00     0.012 A 
HETATM   12  C   LIG     1      18.208  36.239  26.901  1.00  0.00     0.001 A 
HETATM   13  C   LIG     1      17.769  34.990  26.468  1.00  0.00     0.001 A 
HETATM   14  C   LIG     1      17.365  34.802  25.144  1.00  0.00     0.013 A 
ENDROOT
TORSDOF 0
ENDMDL
MODEL 3
REMARK VINA RESULT:      -8.1      1.777      3.439
REMARK  0 active torsions:
REMARK  status: ('A' for Active; 'I' for Inactive)
ROOT
HETATM    1  C   LIG     1      18.192  37.923  21.444  1.00  0.00    -0.015 A 
HETATM    2  C   LIG     1      17.813  37.658  22.796  1.00  0.00    -0.015 A 
HETATM    3  C   LIG     1      17.944  38.609  23.838  1.00  0.00     0.013 A 
HETATM    4  C   LIG     1      17.558  38.300  25.145  1.00  0.00     0.001 A 
HETATM    5  C   LIG     1      17.035  37.046  25.448  1.00  0.00     0.001 A 
HETATM    6  C   LIG     1      16.893  36.090  24.445  1.00  0.00     0.012 A 
HETATM    7  C   LIG     1      17.274  36.381  23.126  1.00  0.00    -0.025 A 
HETATM    8  C   LIG     1      17.121  35.401  22.137  1.00  0.00     0.013 A 
HETATM    9  C   LIG     1      17.491  35.660  20.823  1.00  0.00     0.013 A 
HETATM   10  C   LIG     1      18.021  36.904  20.465  1.00  0.00    -0.025 A 
HETATM   11  C   LIG     1      18.385  37.135  19.128  1.00  0.00     0.012 A 
HETATM   12  C   LIG     1      18.917  38.364  18.744  1.00  0.00     0.001 A 
HETATM   13  C   LIG     1      19.090  39.373  19.688  1.00  0.00     0.001 A 
HETATM   14  C   LIG     1      18.735  39.163  21.023  1.00  0.00     0.013 A 
ENDROOT
TORSDOF 0
ENDMDL
MODEL 4
REMARK VINA RESULT:      -8.1      1.784      5.245
REMARK  0 active torsions:
REMARK  status: ('A' for Active; 'I' for Inactive)
ROOT
HETATM    1  C   LIG     1      17.824  37.645  22.789  1.00  0.00    -0.015 A 
HETATM    2  C   LIG     1      18.203  37.932  21.440  1.00  0.00    -0.015 A 
HETATM    3  C   LIG     1      18.735  39.181  21.035  1.00  0.00     0.013 A 
HETATM    4  C   LIG     1      19.091  39.410  19.703  1.00  0.00     0.001 A 
HETATM    5  C   LIG     1      18.927  38.412  18.747  1.00  0.00     0.001 A 
HETATM    6  C   LIG     1      18.407  37.174  19.115  1.00  0.00     0.012 A 
HETATM    7  C   LIG     1      18.044  36.922  20.448  1.00  0.00    -0.025 A 
HETATM    8  C   LIG     1      17.523  35.669  20.791  1.00  0.00     0.013 A 
HETATM    9  C   LIG     1      17.155  35.391  22.101  1.00  0.00     0.013 A 
HETATM   10  C   LIG     1      17.298  36.359  23.101  1.00  0.00    -0.025 A 
HETATM   11  C   LIG     1      16.917  36.049  24.417  1.00  0.00     0.012 A 
HETATM   12  C   LIG     1      17.049  36.994  25.431  1.00  0.00     0.001 A 
HETATM   13  C   LIG     1      17.562  38.256  25.145  1.00  0.00     0.001 A 
HETATM   14  C   LIG     1      17.946  38.585  23.842  1.00  0.00     0.013 A 
ENDROOT
TORSDOF 0
ENDMDL
MODEL 5
REMARK VINA RESULT:      -7.8      2.828      4.393
REMARK  0 active torsions:
REMARK  status: ('A' for Active; 'I' for Inactive)
ROOT
HETATM    1  C   LIG     1      17.960  37.203  20.568  1.00  0.00    -0.015 A 
HETATM    2  C   LIG     1      16.895  36.287  20.839  1.00  0.00    -0.015 A 
HETATM    3  C   LIG     1      16.721  35.072  20.132  1.00  0.00     0.013 A 
HETATM    4  C   LIG     1      15.664  34.210  20.437  1.00  0.00     0.001 A 
HETATM    5  C   LIG     1      14.759  34.533  21.445  1.00  0.00     0.001 A 
HETATM    6  C   LIG     1      14.904  35.721  22.158  1.00  0.00     0.012 A 
HETATM    7  C   LIG     1      15.960  36.600  21.867  1.00  0.00    -0.025 A 
HETATM    8  C   LIG     1      16.084  37.787  22.599  1.00  0.00     0.013 A 
HETATM    9  C   LIG     1      17.118  38.676  22.334  1.00  0.00     0.013 A 
HETATM   10  C   LIG     1      18.054  38.400  21.332  1.00  0.00    -0.025 A 
HETATM   11  C   LIG     1      19.088  39.319  21.087  1.00  0.00     0.012 A 
HETATM   12  C   LIG     1      20.033  39.069  20.095  1.00  0.00     0.001 A 
HETATM   13  C   LIG     1      19.957  37.903  19.338  1.00  0.00     0.001 A 
HETATM   14  C   LIG     1      18.936  36.977  19.565  1.00  0.00     0.013 A 
ENDROOT
TORSDOF 0
ENDMDL
MODEL 6
REMARK VINA RESULT:      -7.8      2.827      4.186
REMARK  0 active torsions:
REMARK  status: ('A' for Active; 'I' for Inactive)
ROOT
HETATM    1  C   LIG     1      16.901  36.298  20.841  1.00  0.00    -0.015 A 
HETATM    2  C   LIG     1      17.967  37.209  20.565  1.00  0.00    -0.015 A 
HETATM    3  C   LIG     1      18.941  36.979  19.562  1.00  0.00     0.013 A 
HETATM    4  C   LIG     1      19.965  37.903  19.331  1.00  0.00     0.001 A 
HETATM    5  C   LIG     1      20.046  39.069  20.087  1.00  0.00     0.001 A 
HETATM    6  C   LIG     1      19.103  39.323  21.080  1.00  0.00     0.012 A 
HETATM    7  C   LIG     1      18.066  38.408  21.327  1.00  0.00    -0.025 A 
HETATM    8  C   LIG     1      17.131  38.688  22.331  1.00  0.00     0.013 A 
HETATM    9  C   LIG     1      16.096  37.801  22.598  1.00  0.00     0.013 A 
HETATM   10  C   LIG     1      15.968  36.615  21.869  1.00  0.00    -0.025 A 
HETATM   11  C   LIG     1      14.910  35.738  22.162  1.00  0.00     0.012 A 
HETATM   12  C   LIG     1      14.761  34.550  21.452  1.00  0.00     0.001 A 
HETATM   13  C   LIG     1      15.663  34.224  20.442  1.00  0.00     0.001 A 
HETATM   14  C   LIG     1      16.722  35.081  20.135  1.00  0.00     0.013 A 
ENDROOT
TORSDOF 0
ENDMDL
MODEL 7
REMARK VINA RESULT:      -7.6      1.882      2.920
REMARK  0 active torsions:
REMARK  status: ('A' for Active; 'I' for Inactive)
ROOT
HETATM    1  C   LIG     1      18.108  37.408  21.003  1.00  0.00    -0.015 A 
HETATM    2  C   LIG     1      17.672  36.812  22.227  1.00  0.00    -0.015 A 
HETATM    3  C   LIG     1      17.364  35.434  22.349  1.00  0.00     0.013 A 
HETATM    4  C   LIG     1      16.943  34.899  23.570  1.00  0.00     0.001 A 
HETATM    5  C   LIG     1      16.817  35.714  24.691  1.00  0.00     0.001 A 
HETATM    6  C   LIG     1      17.113  37.072  24.602  1.00  0.00     0.012 A 
HETATM    7  C   LIG     1      17.539  37.629  23.385  1.00  0.00    -0.025 A 
HETATM    8  C   LIG     1      17.830  38.997  23.323  1.00  0.00     0.013 A 
HETATM    9  C   LIG     1      18.252  39.576  22.133  1.00  0.00     0.013 A 
HETATM   10  C   LIG     1      18.395  38.802  20.977  1.00  0.00    -0.025 A 
HETATM   11  C   LIG     1      18.824  39.417  19.788  1.00  0.00     0.012 A 
HETATM   12  C   LIG     1      18.974  38.670  18.623  1.00  0.00     0.001 A 
HETATM   13  C   LIG     1      18.698  37.305  18.629  1.00  0.00     0.001 A 
HETATM   14  C   LIG     1      18.270  36.675  19.800  1.00  0.00     0.013 A 
ENDROOT
TORSDOF 0
ENDMDL
MODEL 8
REMARK VINA RESULT:      -7.6      1.886      4.682
REMARK  0 active torsions:
REMARK  status: ('A' for Active; 'I' for Inactive)
ROOT
HETATM    1  C   LIG     1      17.673  36.813  22.221  1.00  0.00    -0.015 A 
HETATM    2  C   LIG     1      18.109  37.409  20.997  1.00  0.00    -0.015 A 
HETATM    3  C   LIG     1      18.271  36.678  19.794  1.00  0.00     0.013 A 
HETATM    4  C   LIG     1      18.700  37.310  18.624  1.00  0.00     0.001 A 
HETATM    5  C   LIG     1      18.977  38.673  18.619  1.00  0.00     0.001 A 
HETATM    6  C   LIG     1      18.826  39.419  19.785  1.00  0.00     0.012 A 
HETATM    7  C   LIG     1      18.396  38.804  20.972  1.00  0.00    -0.025 A 
HETATM    8  C   LIG     1      18.252  39.577  22.130  1.00  0.00     0.013 A 
HETATM    9  C   LIG     1      17.829  38.996  23.319  1.00  0.00     0.013 A 
HETATM   10  C   LIG     1      17.538  37.629  23.379  1.00  0.00    -0.025 A 
HETATM   11  C   LIG     1      17.112  37.071  24.596  1.00  0.00     0.012 A 
HETATM   12  C   LIG     1      16.817  35.713  24.683  1.00  0.00     0.001 A 
HETATM   13  C   LIG     1      16.942  34.899  23.561  1.00  0.00     0.001 A 
HETATM   14  C   LIG     1      17.364  35.434  22.341  1.00  0.00     0.013 A 
ENDROOT
TORSDOF 0
ENDMDL
MODEL 9
REMARK VINA RESULT:      -6.6      8.024     10.211
REMARK  0 active torsions:
REMARK  status: ('A' for Active; 'I' for Inactive)
ROOT
HETATM    1  C   LIG     1      15.096  31.428  14.753  1.00  0.00    -0.015 A 
HETATM    2  C   LIG     1      16.124  32.365  14.419  1.00  0.00    -0.015 A 
HETATM    3  C   LIG     1      16.894  32.278  13.233  1.00  0.00     0.013 A 
HETATM    4  C   LIG     1      17.887  33.220  12.954  1.00  0.00     0.001 A 
HETATM    5  C   LIG     1      18.138  34.265  13.838  1.00  0.00     0.001 A 
HETATM    6  C   LIG     1      17.397  34.378  15.012  1.00  0.00     0.012 A 
HETATM    7  C   LIG     1      16.394  33.442  15.312  1.00  0.00    -0.025 A 
HETATM    8  C   LIG     1      15.663  33.578  16.498  1.00  0.00     0.013 A 
HETATM    9  C   LIG     1      14.666  32.667  16.822  1.00  0.00     0.013 A 
HETATM   10  C   LIG     1      14.373  31.598  15.968  1.00  0.00    -0.025 A 
HETATM   11  C   LIG     1      13.359  30.693  16.323  1.00  0.00     0.012 A 
HETATM   12  C   LIG     1      13.048  29.621  15.491  1.00  0.00     0.001 A 
HETATM   13  C   LIG     1      13.744  29.439  14.299  1.00  0.00     0.001 A 
HETATM   14  C   LIG     1      14.756  30.327  13.928  1.00  0.00     0.013 A 
ENDROOT
TORSDOF 0
ENDMDL
MODEL 10
REMARK VINA RESULT:      -6.5      7.886      9.997
REMARK  0 active torsions:
REMARK  status: ('A' for Active; 'I' for Inactive)
ROOT
HETATM    1  C   LIG     1      16.275  32.724  14.891  1.00  0.00    -0.015 A 
HETATM    2  C   LIG     1      15.344  32.138  15.804  1.00  0.00    -0.015 A 
HETATM    3  C   LIG     1      15.151  32.615  17.124  1.00  0.00     0.013 A 
HETATM    4  C   LIG     1      14.226  32.007  17.977  1.00  0.00     0.001 A 
HETATM    5  C   LIG     1      13.476  30.918  17.544  1.00  0.00     0.001 A 
HETATM    6  C   LIG     1      13.643  30.427  16.251  1.00  0.00     0.012 A 
HETATM    7  C   LIG     1      14.566  31.024  15.378  1.00  0.00    -0.025 A 
HETATM    8  C   LIG     1      14.715  30.511  14.083  1.00  0.00     0.013 A 
HETATM    9  C   LIG     1      15.621  31.080  13.197  1.00  0.00     0.013 A 
HETATM   10  C   LIG     1      16.400  32.176  13.583  1.00  0.00    -0.025 A 
HETATM   11  C   LIG     1      17.307  32.731  12.664  1.00  0.00     0.012 A 
HETATM   12  C   LIG     1      18.095  33.821  13.022  1.00  0.00     0.001 A 
HETATM   13  C   LIG     1      17.986  34.371  14.296  1.00  0.00     0.001 A 
HETATM   14  C   LIG     1      17.091  33.835  15.225  1.00  0.00     0.013 A 
ENDROOT
TORSDOF 0
ENDMDL
MODEL 11
REMARK VINA RESULT:      -6.5      8.055     10.383
REMARK  0 active torsions:
REMARK  status: ('A' for Active; 'I' for Inactive)
ROOT
HETATM    1  C   LIG     1      15.265  32.077  15.758  1.00  0.00    -0.015 A 
HETATM    2  C   LIG     1      16.214  32.714  14.898  1.00  0.00    -0.015 A 
HETATM    3  C   LIG     1      16.983  33.837  15.292  1.00  0.00     0.013 A 
HETATM    4  C   LIG     1      17.898  34.422  14.413  1.00  0.00     0.001 A 
HETATM    5  C   LIG     1      18.071  33.910  13.131  1.00  0.00     0.001 A 
HETATM    6  C   LIG     1      17.331  32.807  12.715  1.00  0.00     0.012 A 
HETATM    7  C   LIG     1      16.406  32.203  13.582  1.00  0.00    -0.025 A 
HETATM    8  C   LIG     1      15.674  31.095  13.139  1.00  0.00     0.013 A 
HETATM    9  C   LIG     1      14.752  30.478  13.975  1.00  0.00     0.013 A 
HETATM   10  C   LIG     1      14.539  30.952  15.273  1.00  0.00    -0.025 A 
HETATM   11  C   LIG     1      13.599  30.306  16.095  1.00  0.00     0.012 A 
HETATM   12  C   LIG     1      13.368  30.759  17.391  1.00  0.00     0.001 A 
HETATM   13  C   LIG     1      14.069  31.857  17.882  1.00  0.00     0.001 A 
HETATM   14  C   LIG     1      15.007  32.513  17.081  1.00  0.00     0.013 A 
ENDROOT
TORSDOF 0
ENDMDL
MODEL 12
REMARK VINA RESULT:      -6.4      7.693     10.247
REMARK  0 active torsions:
REMARK  status: ('A' for Active; 'I' for Inactive)
ROOT
HETATM    1  C   LIG     1      14.853  30.666  14.813  1.00  0.00    -0.015 A 
HETATM    2  C   LIG     1      15.284  31.911  15.369  1.00  0.00    -0.015 A 
HETATM    3  C   LIG     1      16.499  32.542  15.005  1.00  0.00     0.013 A 
HETATM    4  C   LIG     1      16.874  33.760  15.578  1.00  0.00     0.001 A 
HETATM    5  C   LIG     1      16.056  34.378  16.519  1.00  0.00     0.001 A 
HETATM    6  C   LIG     1      14.855  33.783  16.897  1.00  0.00     0.012 A 
HETATM    7  C   LIG     1      14.460  32.559  16.333  1.00  0.00    -0.025 A 
HETATM    8  C   LIG     1      13.247  31.983  16.730  1.00  0.00     0.013 A 
HETATM    9  C   LIG     1      12.831  30.772  16.190  1.00  0.00     0.013 A 
HETATM   10  C   LIG     1      13.615  30.109  15.241  1.00  0.00    -0.025 A 
HETATM   11  C   LIG     1      13.166  28.886  14.713  1.00  0.00     0.012 A 
HETATM   12  C   LIG     1      13.928  28.205  13.767  1.00  0.00     0.001 A 
HETATM   13  C   LIG     1      15.142  28.735  13.337  1.00  0.00     0.001 A 
HETATM   14  C   LIG     1      15.605  29.949  13.849  1.00  0.00     0.013 A 
ENDROOT
TORSDOF 0
ENDMDL
MODEL 13
REMARK VINA RESULT:      -6.1      1.521      2.375
REMARK  0 active torsions:
REMARK  status: ('A' for Active; 'I' for Inactive)
ROOT
HETATM    1  C   LIG     1      16.434  35.786  21.693  1.00  0.00    -0.015 A 
HETATM    2  C   LIG     1      16.963  36.708  22.649  1.00  0.00    -0.015 A 
HETATM    3  C   LIG     1      16.636  36.667  24.027  1.00  0.00     0.013 A 
HETATM    4  C   LIG     1      17.181  37.592  24.921  1.00  0.00     0.001 A 
HETATM    5  C   LIG     1      18.059  38.574  24.473  1.00  0.00     0.001 A 
HETATM    6  C   LIG     1      18.401  38.639  23.124  1.00  0.00     0.012 A 
HETATM    7  C   LIG     1      17.865  37.719  22.209  1.00  0.00    -0.025 A 
HETATM    8  C   LIG     1      18.224  37.807  20.859  1.00  0.00     0.013 A 
HETATM    9  C   LIG     1      17.709  36.912  19.931  1.00  0.00     0.013 A 
HETATM   10  C   LIG     1      16.823  35.906  20.329  1.00  0.00    -0.025 A 
HETATM   11  C   LIG     1      16.319  35.015  19.366  1.00  0.00     0.012 A 
HETATM   12  C   LIG     1      15.434  34.005  19.735  1.00  0.00     0.001 A 
HETATM   13  C   LIG     1      15.044  33.872  21.065  1.00  0.00     0.001 A 
HETATM   14  C   LIG     1      15.533  34.748  22.037  1.00  0.00     0.013 A 
ENDROOT
TORSDOF 0
ENDMDL
MODEL 14
REMARK VINA RESULT:      -6.1      1.713      4.643
REMARK  0 active torsions:
REMARK  status: ('A' for Active; 'I' for Inactive)
ROOT
HETATM    1  C   LIG     1      17.094  36.908  22.452  1.00  0.00    -0.015 A 
HETATM    2  C   LIG     1      16.500  35.919  21.608  1.00  0.00    -0.015 A 
HETATM    3  C   LIG     1      15.568  34.960  22.076  1.00  0.00     0.013 A 
HETATM    4  C   LIG     1      15.015  34.014  21.208  1.00  0.00     0.001 A 
HETATM    5  C   LIG     1      15.372  33.997  19.864  1.00  0.00     0.001 A 
HETATM    6  C   LIG     1      16.285  34.927  19.373  1.00  0.00     0.012 A 
HETATM    7  C   LIG     1      16.852  35.886  20.228  1.00  0.00    -0.025 A 
HETATM    8  C   LIG     1      17.767  36.810  19.709  1.00  0.00     0.013 A 
HETATM    9  C   LIG     1      18.344  37.770  20.531  1.00  0.00     0.013 A 
HETATM   10  C   LIG     1      18.020  37.831  21.890  1.00  0.00    -0.025 A 
HETATM   11  C   LIG     1      18.621  38.813  22.696  1.00  0.00     0.012 A 
HETATM   12  C   LIG     1      18.317  38.896  24.052  1.00  0.00     0.001 A 
HETATM   13  C   LIG     1      17.412  38.001  24.619  1.00  0.00     0.001 A 
HETATM   14  C   LIG     1      16.804  37.017  23.836  1.00  0.00     0.013 A 
ENDROOT
TORSDOF 0
ENDMDL
