MODEL 1
REMARK VINA RESULT:      -8.2      0.000      0.000
REMARK  0 active torsions:
REMARK  status: ('A' for Active; 'I' for Inactive)
ROOT
HETATM    1  C   LIG     1      17.379  35.872  24.203  1.00  0.00    -0.013 A 
HETATM    2  C   LIG     1      16.971  35.730  22.843  1.00  0.00     0.004 A 
HETATM    3  C   LIG     1      16.519  34.511  22.286  1.00  0.00     0.016 A 
HETATM    4  C   LIG     1      16.133  34.444  20.947  1.00  0.00     0.020 A 
HETATM    5  C   LIG     1      16.194  35.586  20.155  1.00  0.00     0.117 A 
HETATM    6  N   LIG     1      16.627  36.757  20.685  1.00  0.00    -0.260 NA
HETATM    7  C   LIG     1      17.011  36.863  21.986  1.00  0.00     0.067 A 
HETATM    8  C   LIG     1      17.445  38.099  22.465  1.00  0.00     0.033 A 
HETATM    9  C   LIG     1      17.845  38.242  23.788  1.00  0.00     0.014 A 
HETATM   10  C   LIG     1      17.818  37.148  24.662  1.00  0.00    -0.025 A 
HETATM   11  C   LIG     1      18.226  37.319  25.994  1.00  0.00     0.012 A 
HETATM   12  C   LIG     1      18.209  36.244  26.881  1.00  0.00     0.001 A 
HETATM   13  C   LIG     1      17.783  34.991  26.449  1.00  0.00     0.001 A 
HETATM   14  C   LIG     1      17.372  34.799  25.128  1.00  0.00     0.013 A 
ENDROOT
TORSDOF 0
ENDMDL
MODEL 2
REMARK VINA RESULT:      -7.9      2.856      4.106
REMARK  0 active torsions:
REMARK  status: ('A' for Active; 'I' for Inactive)
ROOT
HETATM    1  C   LIG     1      17.841  37.154  20.642  1.00  0.00    -0.013 A 
HETATM    2  C   LIG     1      16.808  36.199  20.889  1.00  0.00     0.004 A 
HETATM    3  C   LIG     1      16.665  34.996  20.160  1.00  0.00     0.016 A 
HETATM    4  C   LIG     1      15.632  34.106  20.455  1.00  0.00     0.020 A 
HETATM    5  C   LIG     1      14.736  34.408  21.477  1.00  0.00     0.117 A 
HETATM    6  N   LIG     1      14.870  35.560  22.179  1.00  0.00    -0.260 NA
HETATM    7  C   LIG     1      15.865  36.452  21.921  1.00  0.00     0.067 A 
HETATM    8  C   LIG     1      15.943  37.617  22.683  1.00  0.00     0.033 A 
HETATM    9  C   LIG     1      16.945  38.550  22.446  1.00  0.00     0.014 A 
HETATM   10  C   LIG     1      17.893  38.335  21.437  1.00  0.00    -0.025 A 
HETATM   11  C   LIG     1      18.896  39.292  21.218  1.00  0.00     0.012 A 
HETATM   12  C   LIG     1      19.849  39.099  20.220  1.00  0.00     0.001 A 
HETATM   13  C   LIG     1      19.812  37.950  19.433  1.00  0.00     0.001 A 
HETATM   14  C   LIG     1      18.823  36.986  19.636  1.00  0.00     0.013 A 
ENDROOT
TORSDOF 0
ENDMDL
MODEL 3
REMARK VINA RESULT:      -7.8      2.191      5.219
REMARK  0 active torsions:
REMARK  status: ('A' for Active; 'I' for Inactive)
ROOT
HETATM    1  C   LIG     1      18.198  37.915  21.451  1.00  0.00    -0.013 A 
HETATM    2  C   LIG     1      17.804  37.671  22.802  1.00  0.00     0.004 A 
HETATM    3  C   LIG     1      17.943  38.621  23.840  1.00  0.00     0.016 A 
HETATM    4  C   LIG     1      17.536  38.317  25.139  1.00  0.00     0.020 A 
HETATM    5  C   LIG     1      16.988  37.068  25.413  1.00  0.00     0.117 A 
HETATM    6  N   LIG     1      16.852  36.154  24.420  1.00  0.00    -0.260 NA
HETATM    7  C   LIG     1      17.237  36.413  23.142  1.00  0.00     0.067 A 
HETATM    8  C   LIG     1      17.068  35.427  22.171  1.00  0.00     0.033 A 
HETATM    9  C   LIG     1      17.451  35.658  20.855  1.00  0.00     0.014 A 
HETATM   10  C   LIG     1      18.013  36.886  20.483  1.00  0.00    -0.025 A 
HETATM   11  C   LIG     1      18.390  37.095  19.147  1.00  0.00     0.012 A 
HETATM   12  C   LIG     1      18.952  38.309  18.755  1.00  0.00     0.001 A 
HETATM   13  C   LIG     1      19.140  39.324  19.689  1.00  0.00     0.001 A 
HETATM   14  C   LIG     1      18.771  39.137  21.022  1.00  0.00     0.013 A 
ENDROOT
TORSDOF 0
ENDMDL
MODEL 4
REMARK VINA RESULT:      -7.6      1.866      3.367
REMARK  0 active torsions:
REMARK  status: ('A' for Active; 'I' for Inactive)
ROOT
HETATM    1  C   LIG     1      17.777  37.597  22.726  1.00  0.00    -0.013 A 
HETATM    2  C   LIG     1      18.124  37.770  21.351  1.00  0.00     0.004 A 
HETATM    3  C   LIG     1      18.673  38.963  20.829  1.00  0.00     0.016 A 
HETATM    4  C   LIG     1      18.991  39.064  19.474  1.00  0.00     0.020 A 
HETATM    5  C   LIG     1      18.765  37.979  18.632  1.00  0.00     0.117 A 
HETATM    6  N   LIG     1      18.238  36.833  19.129  1.00  0.00    -0.260 NA
HETATM    7  C   LIG     1      17.917  36.696  20.444  1.00  0.00     0.067 A 
HETATM    8  C   LIG     1      17.379  35.488  20.887  1.00  0.00     0.033 A 
HETATM    9  C   LIG     1      17.037  35.315  22.223  1.00  0.00     0.014 A 
HETATM   10  C   LIG     1      17.229  36.350  23.146  1.00  0.00    -0.025 A 
HETATM   11  C   LIG     1      16.877  36.149  24.491  1.00  0.00     0.012 A 
HETATM   12  C   LIG     1      17.058  37.166  25.426  1.00  0.00     0.001 A 
HETATM   13  C   LIG     1      17.592  38.390  25.031  1.00  0.00     0.001 A 
HETATM   14  C   LIG     1      17.949  38.610  23.700  1.00  0.00     0.013 A 
ENDROOT
TORSDOF 0
ENDMDL
MODEL 5
REMARK VINA RESULT:      -7.6      1.530      4.389
REMARK  0 active torsions:
REMARK  status: ('A' for Active; 'I' for Inactive)
ROOT
HETATM    1  C   LIG     1      16.985  35.740  22.860  1.00  0.00    -0.013 A 
HETATM    2  C   LIG     1      17.373  35.884  24.226  1.00  0.00     0.004 A 
HETATM    3  C   LIG     1      17.360  34.821  25.158  1.00  0.00     0.016 A 
HETATM    4  C   LIG     1      17.754  35.032  26.480  1.00  0.00     0.020 A 
HETATM    5  C   LIG     1      18.163  36.300  26.882  1.00  0.00     0.117 A 
HETATM    6  N   LIG     1      18.177  37.322  25.991  1.00  0.00    -0.260 NA
HETATM    7  C   LIG     1      17.801  37.156  24.694  1.00  0.00     0.067 A 
HETATM    8  C   LIG     1      17.840  38.252  23.832  1.00  0.00     0.033 A 
HETATM    9  C   LIG     1      17.462  38.117  22.502  1.00  0.00     0.014 A 
HETATM   10  C   LIG     1      17.036  36.879  22.005  1.00  0.00    -0.025 A 
HETATM   11  C   LIG     1      16.660  36.769  20.656  1.00  0.00     0.012 A 
HETATM   12  C   LIG     1      16.232  35.547  20.141  1.00  0.00     0.001 A 
HETATM   13  C   LIG     1      16.177  34.424  20.963  1.00  0.00     0.001 A 
HETATM   14  C   LIG     1      16.546  34.512  22.306  1.00  0.00     0.013 A 
ENDROOT
TORSDOF 0
ENDMDL
MODEL 6
REMARK VINA RESULT:      -7.3      2.306      3.307
REMARK  0 active torsions:
REMARK  status: ('A' for Active; 'I' for Inactive)
ROOT
HETATM    1  C   LIG     1      17.723  36.890  21.809  1.00  0.00    -0.013 A 
HETATM    2  C   LIG     1      18.204  37.586  20.658  1.00  0.00     0.004 A 
HETATM    3  C   LIG     1      18.403  36.972  19.401  1.00  0.00     0.016 A 
HETATM    4  C   LIG     1      18.876  37.713  18.317  1.00  0.00     0.020 A 
HETATM    5  C   LIG     1      19.152  39.067  18.478  1.00  0.00     0.117 A 
HETATM    6  N   LIG     1      18.962  39.660  19.682  1.00  0.00    -0.260 NA
HETATM    7  C   LIG     1      18.502  38.972  20.762  1.00  0.00     0.067 A 
HETATM    8  C   LIG     1      18.330  39.646  21.971  1.00  0.00     0.033 A 
HETATM    9  C   LIG     1      17.863  38.973  23.094  1.00  0.00     0.014 A 
HETATM   10  C   LIG     1      17.558  37.607  23.029  1.00  0.00    -0.025 A 
HETATM   11  C   LIG     1      17.086  36.951  24.178  1.00  0.00     0.012 A 
HETATM   12  C   LIG     1      16.777  35.593  24.137  1.00  0.00     0.001 A 
HETATM   13  C   LIG     1      16.933  34.878  22.952  1.00  0.00     0.001 A 
HETATM   14  C   LIG     1      17.399  35.512  21.799  1.00  0.00     0.013 A 
ENDROOT
TORSDOF 0
ENDMDL
MODEL 7
REMARK VINA RESULT:      -7.1      2.292      4.652
REMARK  0 active torsions:
REMARK  status: ('A' for Active; 'I' for Inactive)
ROOT
HETATM    1  C   LIG     1      18.101  37.405  21.012  1.00  0.00    -0.013 A 
HETATM    2  C   LIG     1      17.653  36.805  22.228  1.00  0.00     0.004 A 
HETATM    3  C   LIG     1      17.354  35.429  22.356  1.00  0.00     0.016 A 
HETATM    4  C   LIG     1      16.922  34.908  23.576  1.00  0.00     0.020 A 
HETATM    5  C   LIG     1      16.785  35.751  24.674  1.00  0.00     0.117 A 
HETATM    6  N   LIG     1      17.071  37.072  24.556  1.00  0.00    -0.260 NA
HETATM    7  C   LIG     1      17.495  37.616  23.383  1.00  0.00     0.067 A 
HETATM    8  C   LIG     1      17.772  38.982  23.333  1.00  0.00     0.033 A 
HETATM    9  C   LIG     1      18.206  39.572  22.152  1.00  0.00     0.014 A 
HETATM   10  C   LIG     1      18.374  38.803  20.993  1.00  0.00    -0.025 A 
HETATM   11  C   LIG     1      18.815  39.422  19.813  1.00  0.00     0.012 A 
HETATM   12  C   LIG     1      18.989  38.677  18.648  1.00  0.00     0.001 A 
HETATM   13  C   LIG     1      18.726  37.309  18.649  1.00  0.00     0.001 A 
HETATM   14  C   LIG     1      18.287  36.675  19.813  1.00  0.00     0.013 A 
ENDROOT
TORSDOF 0
ENDMDL
MODEL 8
REMARK VINA RESULT:      -7.0      8.057     10.279
REMARK  0 active torsions:
REMARK  status: ('A' for Active; 'I' for Inactive)
ROOT
HETATM    1  C   LIG     1      15.145  31.343  14.758  1.00  0.00    -0.013 A 
HETATM    2  C   LIG     1      15.983  32.497  14.825  1.00  0.00     0.004 A 
HETATM    3  C   LIG     1      17.014  32.768  13.896  1.00  0.00     0.016 A 
HETATM    4  C   LIG     1      17.796  33.917  14.019  1.00  0.00     0.020 A 
HETATM    5  C   LIG     1      17.557  34.802  15.067  1.00  0.00     0.117 A 
HETATM    6  N   LIG     1      16.570  34.546  15.960  1.00  0.00    -0.260 NA
HETATM    7  C   LIG     1      15.786  33.437  15.872  1.00  0.00     0.067 A 
HETATM    8  C   LIG     1      14.788  33.237  16.825  1.00  0.00     0.033 A 
HETATM    9  C   LIG     1      13.970  32.114  16.766  1.00  0.00     0.014 A 
HETATM   10  C   LIG     1      14.135  31.167  15.748  1.00  0.00    -0.025 A 
HETATM   11  C   LIG     1      13.295  30.043  15.710  1.00  0.00     0.012 A 
HETATM   12  C   LIG     1      13.442  29.087  14.706  1.00  0.00     0.001 A 
HETATM   13  C   LIG     1      14.424  29.244  13.732  1.00  0.00     0.001 A 
HETATM   14  C   LIG     1      15.269  30.355  13.752  1.00  0.00     0.013 A 
ENDROOT
TORSDOF 0
ENDMDL
MODEL 9
REMARK VINA RESULT:      -6.9      8.093     10.065
REMARK  0 active torsions:
REMARK  status: ('A' for Active; 'I' for Inactive)
ROOT
HETATM    1  C   LIG     1      15.412  32.117  15.730  1.00  0.00    -0.013 A 
HETATM    2  C   LIG     1      16.370  32.609  14.792  1.00  0.00     0.004 A 
HETATM    3  C   LIG     1      17.246  33.686  15.062  1.00  0.00     0.016 A 
HETATM    4  C   LIG     1      18.159  34.115  14.098  1.00  0.00     0.020 A 
HETATM    5  C   LIG     1      18.206  33.477  12.863  1.00  0.00     0.117 A 
HETATM    6  N   LIG     1      17.369  32.443  12.600  1.00  0.00    -0.260 NA
HETATM    7  C   LIG     1      16.466  31.996  13.514  1.00  0.00     0.067 A 
HETATM    8  C   LIG     1      15.635  30.927  13.176  1.00  0.00     0.033 A 
HETATM    9  C   LIG     1      14.700  30.446  14.085  1.00  0.00     0.014 A 
HETATM   10  C   LIG     1      14.578  31.025  15.355  1.00  0.00    -0.025 A 
HETATM   11  C   LIG     1      13.627  30.518  16.255  1.00  0.00     0.012 A 
HETATM   12  C   LIG     1      13.487  31.079  17.523  1.00  0.00     0.001 A 
HETATM   13  C   LIG     1      14.295  32.147  17.905  1.00  0.00     0.001 A 
HETATM   14  C   LIG     1      15.248  32.665  17.025  1.00  0.00     0.013 A 
ENDROOT
TORSDOF 0
ENDMDL
MODEL 10
REMARK VINA RESULT:      -5.9      7.981     10.321
REMARK  0 active torsions:
REMARK  status: ('A' for Active; 'I' for Inactive)
ROOT
HETATM    1  C   LIG     1      16.285  32.752  14.911  1.00  0.00    -0.013 A 
HETATM    2  C   LIG     1      15.373  32.167  15.841  1.00  0.00     0.004 A 
HETATM    3  C   LIG     1      15.189  32.644  17.160  1.00  0.00     0.016 A 
HETATM    4  C   LIG     1      14.279  32.025  18.017  1.00  0.00     0.020 A 
HETATM    5  C   LIG     1      13.547  30.929  17.569  1.00  0.00     0.117 A 
HETATM    6  N   LIG     1      13.720  30.469  16.305  1.00  0.00    -0.260 NA
HETATM    7  C   LIG     1      14.597  31.046  15.440  1.00  0.00     0.067 A 
HETATM    8  C   LIG     1      14.724  30.521  14.154  1.00  0.00     0.033 A 
HETATM    9  C   LIG     1      15.611  31.085  13.245  1.00  0.00     0.014 A 
HETATM   10  C   LIG     1      16.392  32.191  13.606  1.00  0.00    -0.025 A 
HETATM   11  C   LIG     1      17.279  32.743  12.668  1.00  0.00     0.012 A 
HETATM   12  C   LIG     1      18.066  33.843  13.006  1.00  0.00     0.001 A 
HETATM   13  C   LIG     1      17.974  34.403  14.278  1.00  0.00     0.001 A 
HETATM   14  C   LIG     1      17.097  33.869  15.224  1.00  0.00     0.013 A 
ENDROOT
TORSDOF 0
ENDMDL
MODEL 11
REMARK VINA RESULT:      -5.2      7.010     10.310
REMARK  0 active torsions:
REMARK  status: ('A' for Active; 'I' for Inactive)
ROOT
HETATM    1  C   LIG     1      14.730  31.222  15.230  1.00  0.00    -0.013 A 
HETATM    2  C   LIG     1      15.056  32.417  15.940  1.00  0.00     0.004 A 
HETATM    3  C   LIG     1      14.373  32.847  17.101  1.00  0.00     0.016 A 
HETATM    4  C   LIG     1      14.745  34.027  17.747  1.00  0.00     0.020 A 
HETATM    5  C   LIG     1      15.798  34.784  17.242  1.00  0.00     0.117 A 
HETATM    6  N   LIG     1      16.456  34.375  16.129  1.00  0.00    -0.260 NA
HETATM    7  C   LIG     1      16.122  33.231  15.472  1.00  0.00     0.067 A 
HETATM    8  C   LIG     1      16.843  32.871  14.334  1.00  0.00     0.033 A 
HETATM    9  C   LIG     1      16.528  31.709  13.638  1.00  0.00     0.014 A 
HETATM   10  C   LIG     1      15.484  30.882  14.070  1.00  0.00    -0.025 A 
HETATM   11  C   LIG     1      15.187  29.713  13.350  1.00  0.00     0.012 A 
HETATM   12  C   LIG     1      14.152  28.876  13.762  1.00  0.00     0.001 A 
HETATM   13  C   LIG     1      13.405  29.194  14.893  1.00  0.00     0.001 A 
HETATM   14  C   LIG     1      13.685  30.351  15.623  1.00  0.00     0.013 A 
ENDROOT
TORSDOF 0
ENDMDL
