REMARK  0 active torsions:
REMARK  status: ('A' for Active; 'I' for Inactive)
ROOT
HETATM    1  C   LIG     1       0.692  -0.372  -0.142  1.00  0.00    -0.015 A 
HETATM    2  C   LIG     1      -0.708  -0.339   0.146  1.00  0.00    -0.015 A 
HETATM    3  C   LIG     1      -1.492  -1.508   0.310  1.00  0.00     0.013 A 
HETATM    4  C   LIG     1      -2.858  -1.421   0.592  1.00  0.00     0.001 A 
HETATM    5  C   LIG     1      -3.475  -0.180   0.717  1.00  0.00     0.001 A 
HETATM    6  C   LIG     1      -2.731   0.987   0.562  1.00  0.00     0.012 A 
HETATM    7  C   LIG     1      -1.357   0.922   0.279  1.00  0.00    -0.025 A 
HETATM    8  C   LIG     1      -0.632   2.110   0.128  1.00  0.00     0.013 A 
HETATM    9  C   LIG     1       0.728   2.077  -0.153  1.00  0.00     0.013 A 
HETATM   10  C   LIG     1       1.397   0.856  -0.289  1.00  0.00    -0.025 A 
HETATM   11  C   LIG     1       2.773   0.855  -0.573  1.00  0.00     0.012 A 
HETATM   12  C   LIG     1       3.463  -0.346  -0.714  1.00  0.00     0.001 A 
HETATM   13  C   LIG     1       2.790  -1.557  -0.573  1.00  0.00     0.001 A 
HETATM   14  C   LIG     1       1.422  -1.578  -0.291  1.00  0.00     0.013 A 
ENDROOT
TORSDOF 0
