REMARK  0 active torsions:
REMARK  status: ('A' for Active; 'I' for Inactive)
ROOT
HETATM    1  C   LIG     1      -0.531  -0.349   0.050  1.00  0.00    -0.013 A 
HETATM    2  C   LIG     1       0.886  -0.179   0.097  1.00  0.00     0.004 A 
HETATM    3  C   LIG     1       1.803  -1.255   0.073  1.00  0.00     0.016 A 
HETATM    4  C   LIG     1       3.177  -1.017   0.121  1.00  0.00     0.020 A 
HETATM    5  C   LIG     1       3.646   0.291   0.193  1.00  0.00     0.117 A 
HETATM    6  N   LIG     1       2.770   1.326   0.216  1.00  0.00    -0.260 NA
HETATM    7  C   LIG     1       1.424   1.134   0.170  1.00  0.00     0.067 A 
HETATM    8  C   LIG     1       0.581   2.245   0.197  1.00  0.00     0.033 A 
HETATM    9  C   LIG     1      -0.799   2.085   0.153  1.00  0.00     0.014 A 
HETATM   10  C   LIG     1      -1.365   0.806   0.080  1.00  0.00    -0.025 A 
HETATM   11  C   LIG     1      -2.762   0.672   0.035  1.00  0.00     0.012 A 
HETATM   12  C   LIG     1      -3.347  -0.591  -0.037  1.00  0.00     0.001 A 
HETATM   13  C   LIG     1      -2.546  -1.730  -0.067  1.00  0.00     0.001 A 
HETATM   14  C   LIG     1      -1.155  -1.618  -0.024  1.00  0.00     0.013 A 
ENDROOT
TORSDOF 0
