REMARK  3 active torsions:
REMARK  status: ('A' for Active; 'I' for Inactive)
REMARK    1  A    between atoms: C_2  and  C_4 
REMARK    2  A    between atoms: C_2  and  O_3 
REMARK    3  A    between atoms: C_4  and  C_5 
ROOT
HETATM    1  C   LIG     1      -0.078   0.359   0.159  1.00  0.00    -0.003 A 
HETATM    2  C   LIG     1       0.850   1.119  -0.592  1.00  0.00     0.042 A 
HETATM    3 CL   LIG     1       0.371   2.532  -1.531  1.00  0.00    -0.084 Cl
HETATM    4  C   LIG     1       2.198   0.751  -0.623  1.00  0.00     0.026 A 
HETATM    5  C   LIG     1       2.640  -0.369   0.076  1.00  0.00     0.027 A 
HETATM    6  C   LIG     1       1.741  -1.141   0.813  1.00  0.00     0.056 A 
HETATM    7 CL   LIG     1       2.352  -2.551   1.669  1.00  0.00    -0.083 Cl
HETATM    8  C   LIG     1       0.379  -0.788   0.857  1.00  0.00     0.064 A 
HETATM    9 CL   LIG     1      -0.737  -1.794   1.786  1.00  0.00    -0.082 Cl
ENDROOT
BRANCH   1  10
HETATM   10  C   LIG     1      -1.543   0.746   0.195  1.00  0.00     0.151 C 
BRANCH  10  11
HETATM   11  C   LIG     1      -2.316  -0.013  -0.842  1.00  0.00     0.143 C 
HETATM   12  O   LIG     1      -2.120   0.220  -2.064  1.00  0.00    -0.650 OA
BRANCH  11  13
HETATM   13  O   LIG     1      -3.248  -0.979  -0.473  1.00  0.00    -0.776 OA
HETATM   14  H   LIG     1      -3.438  -1.186   0.500  1.00  0.00     0.167 HD
ENDBRANCH  11  13
ENDBRANCH  10  11
ENDBRANCH   1  10
TORSDOF 3
