MODEL 1
REMARK VINA RESULT:      -7.6      0.000      0.000
REMARK  0 active torsions:
REMARK  status: ('A' for Active; 'I' for Inactive)
ROOT
HETATM    1  O   LIG     1      16.332  34.829  22.078  1.00  0.00    -0.267 OA
HETATM    2  C   LIG     1      16.589  35.858  22.755  1.00  0.00     0.259 A 
HETATM    3  N   LIG     1      16.370  37.191  22.294  1.00  0.00    -0.289 N 
HETATM    4  C   LIG     1      16.799  38.017  23.375  1.00  0.00     0.259 A 
HETATM    5  C   LIG     1      17.275  37.194  24.482  1.00  0.00     0.048 A 
HETATM    6  C   LIG     1      17.784  37.549  25.730  1.00  0.00     0.018 A 
HETATM    7  C   LIG     1      18.168  36.515  26.603  1.00  0.00     0.001 A 
HETATM    8  C   LIG     1      18.037  35.164  26.215  1.00  0.00     0.001 A 
HETATM    9  C   LIG     1      17.520  34.832  24.949  1.00  0.00     0.018 A 
HETATM   10  C   LIG     1      17.147  35.875  24.103  1.00  0.00     0.048 A 
HETATM   11  O   LIG     1      16.764  39.276  23.356  1.00  0.00    -0.267 OA
HETATM   12  H   LIG     1      15.983  37.493  21.374  1.00  0.00     0.172 HD
ENDROOT
TORSDOF 0
ENDMDL
MODEL 2
REMARK VINA RESULT:      -7.6      0.041      2.651
REMARK  0 active torsions:
REMARK  status: ('A' for Active; 'I' for Inactive)
ROOT
HETATM    1  O   LIG     1      16.803  39.279  23.408  1.00  0.00    -0.267 OA
HETATM    2  C   LIG     1      16.831  38.021  23.414  1.00  0.00     0.259 A 
HETATM    3  N   LIG     1      16.398  37.208  22.323  1.00  0.00    -0.289 N 
HETATM    4  C   LIG     1      16.608  35.870  22.770  1.00  0.00     0.259 A 
HETATM    5  C   LIG     1      17.162  35.869  24.120  1.00  0.00     0.048 A 
HETATM    6  C   LIG     1      17.526  34.815  24.956  1.00  0.00     0.018 A 
HETATM    7  C   LIG     1      18.041  35.130  26.226  1.00  0.00     0.001 A 
HETATM    8  C   LIG     1      18.180  36.476  26.629  1.00  0.00     0.001 A 
HETATM    9  C   LIG     1      17.805  37.521  25.766  1.00  0.00     0.018 A 
HETATM   10  C   LIG     1      17.298  37.183  24.513  1.00  0.00     0.048 A 
HETATM   11  O   LIG     1      16.345  34.849  22.081  1.00  0.00    -0.267 OA
HETATM   12  H   LIG     1      16.015  37.523  21.405  1.00  0.00     0.172 HD
ENDROOT
TORSDOF 0
ENDMDL
MODEL 3
REMARK VINA RESULT:      -7.3      2.844      4.200
REMARK  0 active torsions:
REMARK  status: ('A' for Active; 'I' for Inactive)
ROOT
HETATM    1  O   LIG     1      16.698  35.028  21.174  1.00  0.00    -0.267 OA
HETATM    2  C   LIG     1      16.937  36.226  21.475  1.00  0.00     0.259 A 
HETATM    3  N   LIG     1      16.254  36.943  22.503  1.00  0.00    -0.289 N 
HETATM    4  C   LIG     1      16.845  38.240  22.487  1.00  0.00     0.259 A 
HETATM    5  C   LIG     1      17.877  38.313  21.458  1.00  0.00     0.048 A 
HETATM    6  C   LIG     1      18.713  39.361  21.076  1.00  0.00     0.018 A 
HETATM    7  C   LIG     1      19.626  39.128  20.032  1.00  0.00     0.001 A 
HETATM    8  C   LIG     1      19.683  37.867  19.398  1.00  0.00     0.001 A 
HETATM    9  C   LIG     1      18.828  36.826  19.803  1.00  0.00     0.018 A 
HETATM   10  C   LIG     1      17.933  37.082  20.840  1.00  0.00     0.048 A 
HETATM   11  O   LIG     1      16.509  39.177  23.259  1.00  0.00    -0.267 OA
HETATM   12  H   LIG     1      15.493  36.594  23.126  1.00  0.00     0.172 HD
ENDROOT
TORSDOF 0
ENDMDL
MODEL 4
REMARK VINA RESULT:      -7.2      2.699      4.856
REMARK  0 active torsions:
REMARK  status: ('A' for Active; 'I' for Inactive)
ROOT
HETATM    1  O   LIG     1      16.508  39.007  23.562  1.00  0.00    -0.267 OA
HETATM    2  C   LIG     1      16.807  38.123  22.717  1.00  0.00     0.259 A 
HETATM    3  N   LIG     1      16.221  36.822  22.681  1.00  0.00    -0.289 N 
HETATM    4  C   LIG     1      16.852  36.177  21.577  1.00  0.00     0.259 A 
HETATM    5  C   LIG     1      17.814  37.076  20.948  1.00  0.00     0.048 A 
HETATM    6  C   LIG     1      18.657  36.891  19.853  1.00  0.00     0.018 A 
HETATM    7  C   LIG     1      19.487  37.960  19.473  1.00  0.00     0.001 A 
HETATM    8  C   LIG     1      19.458  39.179  20.186  1.00  0.00     0.001 A 
HETATM    9  C   LIG     1      18.598  39.340  21.288  1.00  0.00     0.018 A 
HETATM   10  C   LIG     1      17.786  38.266  21.645  1.00  0.00     0.048 A 
HETATM   11  O   LIG     1      16.602  34.997  21.214  1.00  0.00    -0.267 OA
HETATM   12  H   LIG     1      15.494  36.432  23.319  1.00  0.00     0.172 HD
ENDROOT
TORSDOF 0
ENDMDL
MODEL 5
REMARK VINA RESULT:      -7.2      2.093      3.233
REMARK  0 active torsions:
REMARK  status: ('A' for Active; 'I' for Inactive)
ROOT
HETATM    1  O   LIG     1      17.760  34.579  26.221  1.00  0.00    -0.267 OA
HETATM    2  C   LIG     1      17.535  35.680  25.655  1.00  0.00     0.259 A 
HETATM    3  N   LIG     1      17.544  36.939  26.326  1.00  0.00    -0.289 N 
HETATM    4  C   LIG     1      17.242  37.889  25.306  1.00  0.00     0.259 A 
HETATM    5  C   LIG     1      17.050  37.214  24.028  1.00  0.00     0.048 A 
HETATM    6  C   LIG     1      16.743  37.720  22.765  1.00  0.00     0.018 A 
HETATM    7  C   LIG     1      16.618  36.808  21.702  1.00  0.00     0.001 A 
HETATM    8  C   LIG     1      16.802  35.424  21.920  1.00  0.00     0.001 A 
HETATM    9  C   LIG     1      17.111  34.940  23.204  1.00  0.00     0.018 A 
HETATM   10  C   LIG     1      17.228  35.864  24.240  1.00  0.00     0.048 A 
HETATM   11  O   LIG     1      17.157  39.131  25.504  1.00  0.00    -0.267 OA
HETATM   12  H   LIG     1      17.730  37.123  27.336  1.00  0.00     0.172 HD
ENDROOT
TORSDOF 0
ENDMDL
MODEL 6
REMARK VINA RESULT:      -6.6      9.644     11.184
REMARK  0 active torsions:
REMARK  status: ('A' for Active; 'I' for Inactive)
ROOT
HETATM    1  O   LIG     1      16.696  31.737  13.136  1.00  0.00    -0.267 OA
HETATM    2  C   LIG     1      15.754  31.194  13.770  1.00  0.00     0.259 A 
HETATM    3  N   LIG     1      15.007  30.078  13.287  1.00  0.00    -0.289 N 
HETATM    4  C   LIG     1      14.062  29.808  14.320  1.00  0.00     0.259 A 
HETATM    5  C   LIG     1      14.233  30.750  15.421  1.00  0.00     0.048 A 
HETATM    6  C   LIG     1      13.551  30.876  16.630  1.00  0.00     0.018 A 
HETATM    7  C   LIG     1      13.948  31.900  17.508  1.00  0.00     0.001 A 
HETATM    8  C   LIG     1      15.008  32.768  17.163  1.00  0.00     0.001 A 
HETATM    9  C   LIG     1      15.681  32.620  15.936  1.00  0.00     0.018 A 
HETATM   10  C   LIG     1      15.267  31.597  15.084  1.00  0.00     0.048 A 
HETATM   11  O   LIG     1      13.209  28.882  14.270  1.00  0.00    -0.267 OA
HETATM   12  H   LIG     1      15.125  29.574  12.381  1.00  0.00     0.172 HD
ENDROOT
TORSDOF 0
ENDMDL
MODEL 7
REMARK VINA RESULT:      -6.6      8.123     10.084
REMARK  0 active torsions:
REMARK  status: ('A' for Active; 'I' for Inactive)
ROOT
HETATM    1  O   LIG     1      12.630  30.267  16.909  1.00  0.00    -0.267 OA
HETATM    2  C   LIG     1      13.552  31.123  16.894  1.00  0.00     0.259 A 
HETATM    3  N   LIG     1      13.831  32.015  17.974  1.00  0.00    -0.289 N 
HETATM    4  C   LIG     1      14.939  32.789  17.520  1.00  0.00     0.259 A 
HETATM    5  C   LIG     1      15.330  32.373  16.177  1.00  0.00     0.048 A 
HETATM    6  C   LIG     1      16.343  32.834  15.338  1.00  0.00     0.018 A 
HETATM    7  C   LIG     1      16.480  32.227  14.077  1.00  0.00     0.001 A 
HETATM    8  C   LIG     1      15.612  31.184  13.685  1.00  0.00     0.001 A 
HETATM    9  C   LIG     1      14.598  30.738  14.552  1.00  0.00     0.018 A 
HETATM   10  C   LIG     1      14.483  31.356  15.795  1.00  0.00     0.048 A 
HETATM   11  O   LIG     1      15.487  33.699  18.198  1.00  0.00    -0.267 OA
HETATM   12  H   LIG     1      13.335  32.084  18.889  1.00  0.00     0.172 HD
ENDROOT
TORSDOF 0
ENDMDL
MODEL 8
REMARK VINA RESULT:      -6.6      8.251     10.490
REMARK  0 active torsions:
REMARK  status: ('A' for Active; 'I' for Inactive)
ROOT
HETATM    1  O   LIG     1      15.456  33.822  17.934  1.00  0.00    -0.267 OA
HETATM    2  C   LIG     1      14.924  32.855  17.329  1.00  0.00     0.259 A 
HETATM    3  N   LIG     1      13.853  32.074  17.859  1.00  0.00    -0.289 N 
HETATM    4  C   LIG     1      13.580  31.108  16.846  1.00  0.00     0.259 A 
HETATM    5  C   LIG     1      14.477  31.299  15.711  1.00  0.00     0.048 A 
HETATM    6  C   LIG     1      14.584  30.608  14.505  1.00  0.00     0.018 A 
HETATM    7  C   LIG     1      15.562  31.031  13.587  1.00  0.00     0.001 A 
HETATM    8  C   LIG     1      16.403  32.124  13.890  1.00  0.00     0.001 A 
HETATM    9  C   LIG     1      16.274  32.805  15.114  1.00  0.00     0.018 A 
HETATM   10  C   LIG     1      15.298  32.366  16.006  1.00  0.00     0.048 A 
HETATM   11  O   LIG     1      12.688  30.224  16.938  1.00  0.00    -0.267 OA
HETATM   12  H   LIG     1      13.377  32.185  18.781  1.00  0.00     0.172 HD
ENDROOT
TORSDOF 0
ENDMDL
MODEL 9
REMARK VINA RESULT:      -6.5      8.701     10.552
REMARK  0 active torsions:
REMARK  status: ('A' for Active; 'I' for Inactive)
ROOT
HETATM    1  O   LIG     1      17.531  32.563  13.643  1.00  0.00    -0.267 OA
HETATM    2  C   LIG     1      16.697  32.568  14.586  1.00  0.00     0.259 A 
HETATM    3  N   LIG     1      16.719  33.503  15.665  1.00  0.00    -0.289 N 
HETATM    4  C   LIG     1      15.608  33.134  16.478  1.00  0.00     0.259 A 
HETATM    5  C   LIG     1      14.917  31.987  15.900  1.00  0.00     0.048 A 
HETATM    6  C   LIG     1      13.793  31.284  16.333  1.00  0.00     0.018 A 
HETATM    7  C   LIG     1      13.351  30.202  15.552  1.00  0.00     0.001 A 
HETATM    8  C   LIG     1      14.034  29.847  14.368  1.00  0.00     0.001 A 
HETATM    9  C   LIG     1      15.165  30.573  13.953  1.00  0.00     0.018 A 
HETATM   10  C   LIG     1      15.583  31.641  14.744  1.00  0.00     0.048 A 
HETATM   11  O   LIG     1      15.286  33.728  17.541  1.00  0.00    -0.267 OA
HETATM   12  H   LIG     1      17.397  34.280  15.822  1.00  0.00     0.172 HD
ENDROOT
TORSDOF 0
ENDMDL
MODEL 10
REMARK VINA RESULT:      -6.5      8.671     10.625
REMARK  0 active torsions:
REMARK  status: ('A' for Active; 'I' for Inactive)
ROOT
HETATM    1  O   LIG     1      15.360  33.892  17.506  1.00  0.00    -0.267 OA
HETATM    2  C   LIG     1      15.635  33.244  16.463  1.00  0.00     0.259 A 
HETATM    3  N   LIG     1      16.726  33.552  15.597  1.00  0.00    -0.289 N 
HETATM    4  C   LIG     1      16.650  32.570  14.565  1.00  0.00     0.259 A 
HETATM    5  C   LIG     1      15.524  31.674  14.802  1.00  0.00     0.048 A 
HETATM    6  C   LIG     1      15.059  30.579  14.074  1.00  0.00     0.018 A 
HETATM    7  C   LIG     1      13.929  29.898  14.559  1.00  0.00     0.001 A 
HETATM    8  C   LIG     1      13.293  30.319  15.748  1.00  0.00     0.001 A 
HETATM    9  C   LIG     1      13.782  31.428  16.463  1.00  0.00     0.018 A 
HETATM   10  C   LIG     1      14.903  32.086  15.961  1.00  0.00     0.048 A 
HETATM   11  O   LIG     1      17.452  32.504  13.596  1.00  0.00    -0.267 OA
HETATM   12  H   LIG     1      17.422  34.323  15.696  1.00  0.00     0.172 HD
ENDROOT
TORSDOF 0
ENDMDL
MODEL 11
REMARK VINA RESULT:      -6.4      3.332      4.359
REMARK  0 active torsions:
REMARK  status: ('A' for Active; 'I' for Inactive)
ROOT
HETATM    1  O   LIG     1      16.811  39.684  23.585  1.00  0.00    -0.267 OA
HETATM    2  C   LIG     1      17.419  39.129  22.632  1.00  0.00     0.259 A 
HETATM    3  N   LIG     1      18.549  39.695  21.969  1.00  0.00    -0.289 N 
HETATM    4  C   LIG     1      18.898  38.734  20.975  1.00  0.00     0.259 A 
HETATM    5  C   LIG     1      17.988  37.595  21.032  1.00  0.00     0.048 A 
HETATM    6  C   LIG     1      17.935  36.429  20.269  1.00  0.00     0.018 A 
HETATM    7  C   LIG     1      16.925  35.495  20.562  1.00  0.00     0.001 A 
HETATM    8  C   LIG     1      15.999  35.743  21.599  1.00  0.00     0.001 A 
HETATM    9  C   LIG     1      16.074  36.928  22.354  1.00  0.00     0.018 A 
HETATM   10  C   LIG     1      17.084  37.837  22.044  1.00  0.00     0.048 A 
HETATM   11  O   LIG     1      19.858  38.869  20.172  1.00  0.00    -0.267 OA
HETATM   12  H   LIG     1      19.016  40.607  22.168  1.00  0.00     0.172 HD
ENDROOT
TORSDOF 0
ENDMDL
MODEL 12
REMARK VINA RESULT:      -6.1      2.884      3.536
REMARK  0 active torsions:
REMARK  status: ('A' for Active; 'I' for Inactive)
ROOT
HETATM    1  O   LIG     1      17.039  35.523  19.751  1.00  0.00    -0.267 OA
HETATM    2  C   LIG     1      17.622  36.566  20.147  1.00  0.00     0.259 A 
HETATM    3  N   LIG     1      18.580  37.288  19.372  1.00  0.00    -0.289 N 
HETATM    4  C   LIG     1      18.966  38.377  20.208  1.00  0.00     0.259 A 
HETATM    5  C   LIG     1      18.251  38.318  21.478  1.00  0.00     0.048 A 
HETATM    6  C   LIG     1      18.298  39.154  22.593  1.00  0.00     0.018 A 
HETATM    7  C   LIG     1      17.478  38.837  23.690  1.00  0.00     0.001 A 
HETATM    8  C   LIG     1      16.637  37.703  23.651  1.00  0.00     0.001 A 
HETATM    9  C   LIG     1      16.608  36.875  22.514  1.00  0.00     0.018 A 
HETATM   10  C   LIG     1      17.430  37.211  21.441  1.00  0.00     0.048 A 
HETATM   11  O   LIG     1      19.807  39.254  19.877  1.00  0.00    -0.267 OA
HETATM   12  H   LIG     1      18.920  37.067  18.411  1.00  0.00     0.172 HD
ENDROOT
TORSDOF 0
ENDMDL
MODEL 13
REMARK VINA RESULT:      -6.1      2.950      4.379
REMARK  0 active torsions:
REMARK  status: ('A' for Active; 'I' for Inactive)
ROOT
HETATM    1  O   LIG     1      19.914  39.271  19.692  1.00  0.00    -0.267 OA
HETATM    2  C   LIG     1      19.065  38.413  20.048  1.00  0.00     0.259 A 
HETATM    3  N   LIG     1      18.616  37.343  19.218  1.00  0.00    -0.289 N 
HETATM    4  C   LIG     1      17.672  36.639  20.023  1.00  0.00     0.259 A 
HETATM    5  C   LIG     1      17.548  37.276  21.329  1.00  0.00     0.048 A 
HETATM    6  C   LIG     1      16.760  36.950  22.432  1.00  0.00     0.018 A 
HETATM    7  C   LIG     1      16.856  37.765  23.574  1.00  0.00     0.001 A 
HETATM    8  C   LIG     1      17.728  38.876  23.590  1.00  0.00     0.001 A 
HETATM    9  C   LIG     1      18.512  39.183  22.463  1.00  0.00     0.018 A 
HETATM   10  C   LIG     1      18.398  38.360  21.345  1.00  0.00     0.048 A 
HETATM   11  O   LIG     1      17.046  35.615  19.640  1.00  0.00    -0.267 OA
HETATM   12  H   LIG     1      18.912  37.125  18.241  1.00  0.00     0.172 HD
ENDROOT
TORSDOF 0
ENDMDL
MODEL 14
REMARK VINA RESULT:      -6.0      9.783     11.428
REMARK  0 active torsions:
REMARK  status: ('A' for Active; 'I' for Inactive)
ROOT
HETATM    1  O   LIG     1      13.599  31.597  17.880  1.00  0.00    -0.267 OA
HETATM    2  C   LIG     1      13.726  31.095  16.733  1.00  0.00     0.259 A 
HETATM    3  N   LIG     1      12.903  30.045  16.226  1.00  0.00    -0.289 N 
HETATM    4  C   LIG     1      13.402  29.804  14.912  1.00  0.00     0.259 A 
HETATM    5  C   LIG     1      14.517  30.699  14.622  1.00  0.00     0.048 A 
HETATM    6  C   LIG     1      15.310  30.831  13.483  1.00  0.00     0.018 A 
HETATM    7  C   LIG     1      16.329  31.800  13.498  1.00  0.00     0.001 A 
HETATM    8  C   LIG     1      16.531  32.608  14.639  1.00  0.00     0.001 A 
HETATM    9  C   LIG     1      15.717  32.455  15.775  1.00  0.00     0.018 A 
HETATM   10  C   LIG     1      14.715  31.488  15.735  1.00  0.00     0.048 A 
HETATM   11  O   LIG     1      12.932  28.937  14.129  1.00  0.00    -0.267 OA
HETATM   12  H   LIG     1      12.115  29.562  16.709  1.00  0.00     0.172 HD
ENDROOT
TORSDOF 0
ENDMDL
