REMARK  0 active torsions:
REMARK  status: ('A' for Active; 'I' for Inactive)
ROOT
HETATM    1  O   LIG     1       2.704  -1.822   0.057  1.00  0.00    -0.259 OA
HETATM    2  C   LIG     1       2.077  -0.731   0.032  1.00  0.00     0.302 A 
HETATM    3  O   LIG     1       2.686   0.523   0.014  1.00  0.00    -0.237 OA
HETATM    4  C   LIG     1       0.627  -0.578   0.016  1.00  0.00     0.056 A 
HETATM    5  C   LIG     1      -0.397  -1.523   0.024  1.00  0.00     0.018 A 
HETATM    6  C   LIG     1      -1.724  -1.055   0.004  1.00  0.00     0.001 A 
HETATM    7  C   LIG     1      -1.994   0.331  -0.024  1.00  0.00     0.001 A 
HETATM    8  C   LIG     1      -0.939   1.263  -0.031  1.00  0.00     0.018 A 
HETATM    9  C   LIG     1       0.364   0.771  -0.011  1.00  0.00     0.056 A 
HETATM   10  C   LIG     1       1.651   1.457  -0.012  1.00  0.00     0.302 A 
HETATM   11  O   LIG     1       1.823   2.703  -0.033  1.00  0.00    -0.259 OA
ENDROOT
TORSDOF 0
