REMARK  0 active torsions:
REMARK  status: ('A' for Active; 'I' for Inactive)
ROOT
HETATM    1  O   LIG     1       2.048   2.328   0.012  1.00  0.00    -0.267 OA
HETATM    2  C   LIG     1       1.656   1.132  -0.007  1.00  0.00     0.259 A 
HETATM    3  N   LIG     1       2.532   0.006  -0.050  1.00  0.00    -0.289 N 
HETATM    4  C   LIG     1       1.661  -1.123  -0.058  1.00  0.00     0.259 A 
HETATM    5  C   LIG     1       0.269  -0.688  -0.021  1.00  0.00     0.048 A 
HETATM    6  C   LIG     1      -0.917  -1.421  -0.014  1.00  0.00     0.018 A 
HETATM    7  C   LIG     1      -2.130  -0.711   0.026  1.00  0.00     0.001 A 
HETATM    8  C   LIG     1      -2.133   0.701   0.058  1.00  0.00     0.001 A 
HETATM    9  C   LIG     1      -0.922   1.417   0.050  1.00  0.00     0.018 A 
HETATM   10  C   LIG     1       0.266   0.690   0.010  1.00  0.00     0.048 A 
HETATM   11  O   LIG     1       2.058  -2.318  -0.093  1.00  0.00    -0.267 OA
HETATM   12  H   LIG     1       3.575   0.009  -0.071  1.00  0.00     0.172 HD
ENDROOT
TORSDOF 0
