MODEL 1
REMARK VINA RESULT:      -7.5      0.000      0.000
REMARK  0 active torsions:
REMARK  status: ('A' for Active; 'I' for Inactive)
ROOT
HETATM    1  O   LIG     1      16.338  34.845  22.069  1.00  0.00    -0.259 OA
HETATM    2  C   LIG     1      16.595  35.866  22.758  1.00  0.00     0.302 A 
HETATM    3  O   LIG     1      16.381  37.176  22.330  1.00  0.00    -0.237 OA
HETATM    4  C   LIG     1      17.151  35.871  24.106  1.00  0.00     0.056 A 
HETATM    5  C   LIG     1      17.527  34.826  24.948  1.00  0.00     0.018 A 
HETATM    6  C   LIG     1      18.041  35.156  26.216  1.00  0.00     0.001 A 
HETATM    7  C   LIG     1      18.165  36.507  26.609  1.00  0.00     0.001 A 
HETATM    8  C   LIG     1      17.777  37.542  25.737  1.00  0.00     0.018 A 
HETATM    9  C   LIG     1      17.271  37.186  24.489  1.00  0.00     0.056 A 
HETATM   10  C   LIG     1      16.790  37.999  23.378  1.00  0.00     0.302 A 
HETATM   11  O   LIG     1      16.744  39.256  23.350  1.00  0.00    -0.259 OA
ENDROOT
TORSDOF 0
ENDMDL
MODEL 2
REMARK VINA RESULT:      -7.5      0.036      2.634
REMARK  0 active torsions:
REMARK  status: ('A' for Active; 'I' for Inactive)
ROOT
HETATM    1  O   LIG     1      16.806  39.258  23.361  1.00  0.00    -0.259 OA
HETATM    2  C   LIG     1      16.827  38.000  23.392  1.00  0.00     0.302 A 
HETATM    3  O   LIG     1      16.395  37.182  22.349  1.00  0.00    -0.237 OA
HETATM    4  C   LIG     1      17.299  37.179  24.502  1.00  0.00     0.056 A 
HETATM    5  C   LIG     1      17.819  37.528  25.747  1.00  0.00     0.018 A 
HETATM    6  C   LIG     1      18.192  36.488  26.618  1.00  0.00     0.001 A 
HETATM    7  C   LIG     1      18.039  35.139  26.230  1.00  0.00     0.001 A 
HETATM    8  C   LIG     1      17.510  34.816  24.966  1.00  0.00     0.018 A 
HETATM    9  C   LIG     1      17.150  35.866  24.124  1.00  0.00     0.056 A 
HETATM   10  C   LIG     1      16.585  35.870  22.779  1.00  0.00     0.302 A 
HETATM   11  O   LIG     1      16.305  34.853  22.094  1.00  0.00    -0.259 OA
ENDROOT
TORSDOF 0
ENDMDL
MODEL 3
REMARK VINA RESULT:      -7.3      2.622      4.826
REMARK  0 active torsions:
REMARK  status: ('A' for Active; 'I' for Inactive)
ROOT
HETATM    1  O   LIG     1      16.577  38.834  23.704  1.00  0.00    -0.259 OA
HETATM    2  C   LIG     1      16.875  37.982  22.827  1.00  0.00     0.302 A 
HETATM    3  O   LIG     1      16.358  36.688  22.783  1.00  0.00    -0.237 OA
HETATM    4  C   LIG     1      17.796  38.186  21.715  1.00  0.00     0.056 A 
HETATM    5  C   LIG     1      18.550  39.295  21.337  1.00  0.00     0.018 A 
HETATM    6  C   LIG     1      19.362  39.181  20.193  1.00  0.00     0.001 A 
HETATM    7  C   LIG     1      19.400  37.974  19.461  1.00  0.00     0.001 A 
HETATM    8  C   LIG     1      18.627  36.869  19.866  1.00  0.00     0.018 A 
HETATM    9  C   LIG     1      17.833  37.011  21.002  1.00  0.00     0.056 A 
HETATM   10  C   LIG     1      16.935  36.077  21.670  1.00  0.00     0.302 A 
HETATM   11  O   LIG     1      16.702  34.894  21.313  1.00  0.00    -0.259 OA
ENDROOT
TORSDOF 0
ENDMDL
MODEL 4
REMARK VINA RESULT:      -7.2      2.763      4.134
REMARK  0 active torsions:
REMARK  status: ('A' for Active; 'I' for Inactive)
ROOT
HETATM    1  O   LIG     1      16.713  34.874  21.101  1.00  0.00    -0.259 OA
HETATM    2  C   LIG     1      16.918  36.062  21.462  1.00  0.00     0.302 A 
HETATM    3  O   LIG     1      16.248  36.690  22.510  1.00  0.00    -0.237 OA
HETATM    4  C   LIG     1      17.877  36.984  20.864  1.00  0.00     0.056 A 
HETATM    5  C   LIG     1      18.769  36.823  19.805  1.00  0.00     0.018 A 
HETATM    6  C   LIG     1      19.579  37.920  19.456  1.00  0.00     0.001 A 
HETATM    7  C   LIG     1      19.482  39.137  20.165  1.00  0.00     0.001 A 
HETATM    8  C   LIG     1      18.571  39.270  21.231  1.00  0.00     0.018 A 
HETATM    9  C   LIG     1      17.782  38.169  21.554  1.00  0.00     0.056 A 
HETATM   10  C   LIG     1      16.764  37.984  22.582  1.00  0.00     0.302 A 
HETATM   11  O   LIG     1      16.393  38.848  23.417  1.00  0.00    -0.259 OA
ENDROOT
TORSDOF 0
ENDMDL
MODEL 5
REMARK VINA RESULT:      -6.8      2.091      3.249
REMARK  0 active torsions:
REMARK  status: ('A' for Active; 'I' for Inactive)
ROOT
HETATM    1  O   LIG     1      18.062  34.598  26.379  1.00  0.00    -0.259 OA
HETATM    2  C   LIG     1      17.748  35.675  25.807  1.00  0.00     0.302 A 
HETATM    3  O   LIG     1      17.780  36.926  26.421  1.00  0.00    -0.237 OA
HETATM    4  C   LIG     1      17.302  35.811  24.426  1.00  0.00     0.056 A 
HETATM    5  C   LIG     1      17.112  34.862  23.423  1.00  0.00     0.018 A 
HETATM    6  C   LIG     1      16.665  35.313  22.167  1.00  0.00     0.001 A 
HETATM    7  C   LIG     1      16.421  36.686  21.944  1.00  0.00     0.001 A 
HETATM    8  C   LIG     1      16.622  37.622  22.976  1.00  0.00     0.018 A 
HETATM    9  C   LIG     1      17.065  37.148  24.208  1.00  0.00     0.056 A 
HETATM   10  C   LIG     1      17.364  37.843  25.455  1.00  0.00     0.302 A 
HETATM   11  O   LIG     1      17.267  39.082  25.651  1.00  0.00    -0.259 OA
ENDROOT
TORSDOF 0
ENDMDL
MODEL 6
REMARK VINA RESULT:      -6.8      2.014      4.029
REMARK  0 active torsions:
REMARK  status: ('A' for Active; 'I' for Inactive)
ROOT
HETATM    1  O   LIG     1      17.019  39.158  25.260  1.00  0.00    -0.259 OA
HETATM    2  C   LIG     1      17.173  37.916  25.127  1.00  0.00     0.302 A 
HETATM    3  O   LIG     1      17.572  37.061  26.153  1.00  0.00    -0.237 OA
HETATM    4  C   LIG     1      16.966  37.155  23.900  1.00  0.00     0.056 A 
HETATM    5  C   LIG     1      16.571  37.555  22.626  1.00  0.00     0.018 A 
HETATM    6  C   LIG     1      16.460  36.567  21.630  1.00  0.00     0.001 A 
HETATM    7  C   LIG     1      16.743  35.216  21.928  1.00  0.00     0.001 A 
HETATM    8  C   LIG     1      17.142  34.840  23.225  1.00  0.00     0.018 A 
HETATM    9  C   LIG     1      17.242  35.840  24.190  1.00  0.00     0.056 A 
HETATM   10  C   LIG     1      17.621  35.783  25.598  1.00  0.00     0.302 A 
HETATM   11  O   LIG     1      17.945  34.747  26.233  1.00  0.00    -0.259 OA
ENDROOT
TORSDOF 0
ENDMDL
MODEL 7
REMARK VINA RESULT:      -6.7      8.375     10.072
REMARK  0 active torsions:
REMARK  status: ('A' for Active; 'I' for Inactive)
ROOT
HETATM    1  O   LIG     1      17.303  32.413  13.769  1.00  0.00    -0.259 OA
HETATM    2  C   LIG     1      16.531  32.667  14.730  1.00  0.00     0.302 A 
HETATM    3  O   LIG     1      16.662  33.771  15.571  1.00  0.00    -0.237 OA
HETATM    4  C   LIG     1      15.379  31.870  15.134  1.00  0.00     0.056 A 
HETATM    5  C   LIG     1      14.846  30.693  14.612  1.00  0.00     0.018 A 
HETATM    6  C   LIG     1      13.704  30.155  15.234  1.00  0.00     0.001 A 
HETATM    7  C   LIG     1      13.126  30.799  16.350  1.00  0.00     0.001 A 
HETATM    8  C   LIG     1      13.686  31.987  16.856  1.00  0.00     0.018 A 
HETATM    9  C   LIG     1      14.816  32.497  16.221  1.00  0.00     0.056 A 
HETATM   10  C   LIG     1      15.619  33.684  16.492  1.00  0.00     0.302 A 
HETATM   11  O   LIG     1      15.418  34.516  17.414  1.00  0.00    -0.259 OA
ENDROOT
TORSDOF 0
ENDMDL
MODEL 8
REMARK VINA RESULT:      -6.4      9.466     11.105
REMARK  0 active torsions:
REMARK  status: ('A' for Active; 'I' for Inactive)
ROOT
HETATM    1  O   LIG     1      16.687  31.848  13.152  1.00  0.00    -0.259 OA
HETATM    2  C   LIG     1      15.757  31.294  13.795  1.00  0.00     0.302 A 
HETATM    3  O   LIG     1      15.008  30.219  13.320  1.00  0.00    -0.237 OA
HETATM    4  C   LIG     1      15.302  31.664  15.130  1.00  0.00     0.056 A 
HETATM    5  C   LIG     1      15.732  32.659  16.005  1.00  0.00     0.018 A 
HETATM    6  C   LIG     1      15.081  32.769  17.248  1.00  0.00     0.001 A 
HETATM    7  C   LIG     1      14.027  31.891  17.584  1.00  0.00     0.001 A 
HETATM    8  C   LIG     1      13.613  30.895  16.679  1.00  0.00     0.018 A 
HETATM    9  C   LIG     1      14.276  30.809  15.457  1.00  0.00     0.056 A 
HETATM   10  C   LIG     1      14.093  29.908  14.326  1.00  0.00     0.302 A 
HETATM   11  O   LIG     1      13.245  28.983  14.248  1.00  0.00    -0.259 OA
ENDROOT
TORSDOF 0
ENDMDL
MODEL 9
REMARK VINA RESULT:      -6.4      2.606      3.668
REMARK  0 active torsions:
REMARK  status: ('A' for Active; 'I' for Inactive)
ROOT
HETATM    1  O   LIG     1      18.651  39.422  20.505  1.00  0.00    -0.259 OA
HETATM    2  C   LIG     1      18.122  38.866  21.503  1.00  0.00     0.302 A 
HETATM    3  O   LIG     1      17.908  39.495  22.729  1.00  0.00    -0.237 OA
HETATM    4  C   LIG     1      17.644  37.490  21.561  1.00  0.00     0.056 A 
HETATM    5  C   LIG     1      17.637  36.478  20.604  1.00  0.00     0.018 A 
HETATM    6  C   LIG     1      17.096  35.231  20.968  1.00  0.00     0.001 A 
HETATM    7  C   LIG     1      16.580  35.027  22.267  1.00  0.00     0.001 A 
HETATM    8  C   LIG     1      16.601  36.068  23.215  1.00  0.00     0.018 A 
HETATM    9  C   LIG     1      17.141  37.291  22.825  1.00  0.00     0.056 A 
HETATM   10  C   LIG     1      17.308  38.544  23.553  1.00  0.00     0.302 A 
HETATM   11  O   LIG     1      16.967  38.755  24.746  1.00  0.00    -0.259 OA
ENDROOT
TORSDOF 0
ENDMDL
MODEL 10
REMARK VINA RESULT:      -6.4      8.724     10.582
REMARK  0 active torsions:
REMARK  status: ('A' for Active; 'I' for Inactive)
ROOT
HETATM    1  O   LIG     1      16.852  34.232  15.558  1.00  0.00    -0.259 OA
HETATM    2  C   LIG     1      16.042  33.339  15.921  1.00  0.00     0.302 A 
HETATM    3  O   LIG     1      15.420  33.305  17.168  1.00  0.00    -0.237 OA
HETATM    4  C   LIG     1      15.612  32.199  15.121  1.00  0.00     0.056 A 
HETATM    5  C   LIG     1      15.949  31.804  13.828  1.00  0.00     0.018 A 
HETATM    6  C   LIG     1      15.357  30.632  13.322  1.00  0.00     0.001 A 
HETATM    7  C   LIG     1      14.450  29.891  14.111  1.00  0.00     0.001 A 
HETATM    8  C   LIG     1      14.128  30.314  15.415  1.00  0.00     0.018 A 
HETATM    9  C   LIG     1      14.730  31.477  15.889  1.00  0.00     0.056 A 
HETATM   10  C   LIG     1      14.611  32.169  17.167  1.00  0.00     0.302 A 
HETATM   11  O   LIG     1      13.892  31.812  18.136  1.00  0.00    -0.259 OA
ENDROOT
TORSDOF 0
ENDMDL
MODEL 11
REMARK VINA RESULT:      -6.4      2.965      4.252
REMARK  0 active torsions:
REMARK  status: ('A' for Active; 'I' for Inactive)
ROOT
HETATM    1  O   LIG     1      19.661  38.163  19.361  1.00  0.00    -0.259 OA
HETATM    2  C   LIG     1      18.736  37.513  19.914  1.00  0.00     0.302 A 
HETATM    3  O   LIG     1      18.169  36.353  19.386  1.00  0.00    -0.237 OA
HETATM    4  C   LIG     1      18.099  37.842  21.183  1.00  0.00     0.056 A 
HETATM    5  C   LIG     1      18.316  38.890  22.076  1.00  0.00     0.018 A 
HETATM    6  C   LIG     1      17.525  38.938  23.239  1.00  0.00     0.001 A 
HETATM    7  C   LIG     1      16.547  37.948  23.481  1.00  0.00     0.001 A 
HETATM    8  C   LIG     1      16.350  36.901  22.561  1.00  0.00     0.018 A 
HETATM    9  C   LIG     1      17.147  36.879  21.419  1.00  0.00     0.056 A 
HETATM   10  C   LIG     1      17.192  35.950  20.295  1.00  0.00     0.302 A 
HETATM   11  O   LIG     1      16.467  34.933  20.150  1.00  0.00    -0.259 OA
ENDROOT
TORSDOF 0
ENDMDL
MODEL 12
REMARK VINA RESULT:      -6.3      9.132     10.632
REMARK  0 active torsions:
REMARK  status: ('A' for Active; 'I' for Inactive)
ROOT
HETATM    1  O   LIG     1      15.701  29.906  13.010  1.00  0.00    -0.259 OA
HETATM    2  C   LIG     1      15.773  30.807  13.887  1.00  0.00     0.302 A 
HETATM    3  O   LIG     1      16.805  31.741  13.967  1.00  0.00    -0.237 OA
HETATM    4  C   LIG     1      14.812  31.037  14.958  1.00  0.00     0.056 A 
HETATM    5  C   LIG     1      13.631  30.376  15.291  1.00  0.00     0.018 A 
HETATM    6  C   LIG     1      12.907  30.843  16.404  1.00  0.00     0.001 A 
HETATM    7  C   LIG     1      13.375  31.948  17.150  1.00  0.00     0.001 A 
HETATM    8  C   LIG     1      14.572  32.596  16.790  1.00  0.00     0.018 A 
HETATM    9  C   LIG     1      15.267  32.112  15.684  1.00  0.00     0.056 A 
HETATM   10  C   LIG     1      16.511  32.550  15.064  1.00  0.00     0.302 A 
HETATM   11  O   LIG     1      17.228  33.511  15.446  1.00  0.00    -0.259 OA
ENDROOT
TORSDOF 0
ENDMDL
MODEL 13
REMARK VINA RESULT:      -6.3      2.950      3.633
REMARK  0 active torsions:
REMARK  status: ('A' for Active; 'I' for Inactive)
ROOT
HETATM    1  O   LIG     1      16.481  34.873  20.202  1.00  0.00    -0.259 OA
HETATM    2  C   LIG     1      17.192  35.904  20.332  1.00  0.00     0.302 A 
HETATM    3  O   LIG     1      18.158  36.310  19.413  1.00  0.00    -0.237 OA
HETATM    4  C   LIG     1      17.137  36.846  21.444  1.00  0.00     0.056 A 
HETATM    5  C   LIG     1      16.345  36.871  22.589  1.00  0.00     0.018 A 
HETATM    6  C   LIG     1      16.530  37.932  23.495  1.00  0.00     0.001 A 
HETATM    7  C   LIG     1      17.492  38.934  23.236  1.00  0.00     0.001 A 
HETATM    8  C   LIG     1      18.279  38.883  22.070  1.00  0.00     0.018 A 
HETATM    9  C   LIG     1      18.073  37.821  21.192  1.00  0.00     0.056 A 
HETATM   10  C   LIG     1      18.710  37.485  19.924  1.00  0.00     0.302 A 
HETATM   11  O   LIG     1      19.622  38.142  19.359  1.00  0.00    -0.259 OA
ENDROOT
TORSDOF 0
ENDMDL
MODEL 14
REMARK VINA RESULT:      -6.1      2.639      4.232
REMARK  0 active torsions:
REMARK  status: ('A' for Active; 'I' for Inactive)
ROOT
HETATM    1  O   LIG     1      18.673  40.015  21.645  1.00  0.00    -0.259 OA
HETATM    2  C   LIG     1      18.448  38.876  21.158  1.00  0.00     0.302 A 
HETATM    3  O   LIG     1      18.768  38.504  19.853  1.00  0.00    -0.237 OA
HETATM    4  C   LIG     1      17.826  37.756  21.854  1.00  0.00     0.056 A 
HETATM    5  C   LIG     1      17.341  37.638  23.155  1.00  0.00     0.018 A 
HETATM    6  C   LIG     1      16.785  36.404  23.540  1.00  0.00     0.001 A 
HETATM    7  C   LIG     1      16.729  35.328  22.627  1.00  0.00     0.001 A 
HETATM    8  C   LIG     1      17.227  35.477  21.318  1.00  0.00     0.018 A 
HETATM    9  C   LIG     1      17.771  36.709  20.965  1.00  0.00     0.056 A 
HETATM   10  C   LIG     1      18.359  37.178  19.716  1.00  0.00     0.302 A 
HETATM   11  O   LIG     1      18.488  36.504  18.662  1.00  0.00    -0.259 OA
ENDROOT
TORSDOF 0
ENDMDL
MODEL 15
REMARK VINA RESULT:      -6.1      2.734      3.532
REMARK  0 active torsions:
REMARK  status: ('A' for Active; 'I' for Inactive)
ROOT
HETATM    1  O   LIG     1      18.367  36.504  18.479  1.00  0.00    -0.259 OA
HETATM    2  C   LIG     1      18.291  37.177  19.540  1.00  0.00     0.302 A 
HETATM    3  O   LIG     1      18.743  38.490  19.669  1.00  0.00    -0.237 OA
HETATM    4  C   LIG     1      17.725  36.721  20.804  1.00  0.00     0.056 A 
HETATM    5  C   LIG     1      17.154  35.504  21.169  1.00  0.00     0.018 A 
HETATM    6  C   LIG     1      16.691  35.365  22.491  1.00  0.00     0.001 A 
HETATM    7  C   LIG     1      16.807  36.434  23.406  1.00  0.00     0.001 A 
HETATM    8  C   LIG     1      17.389  37.652  23.009  1.00  0.00     0.018 A 
HETATM    9  C   LIG     1      17.839  37.761  21.695  1.00  0.00     0.056 A 
HETATM   10  C   LIG     1      18.475  38.865  20.985  1.00  0.00     0.302 A 
HETATM   11  O   LIG     1      18.748  39.994  21.469  1.00  0.00    -0.259 OA
ENDROOT
TORSDOF 0
ENDMDL
MODEL 16
REMARK VINA RESULT:      -5.9      9.415     11.006
REMARK  0 active torsions:
REMARK  status: ('A' for Active; 'I' for Inactive)
ROOT
HETATM    1  O   LIG     1      13.089  29.136  14.181  1.00  0.00    -0.259 OA
HETATM    2  C   LIG     1      13.566  29.993  14.971  1.00  0.00     0.302 A 
HETATM    3  O   LIG     1      13.101  30.207  16.268  1.00  0.00    -0.237 OA
HETATM    4  C   LIG     1      14.670  30.900  14.683  1.00  0.00     0.056 A 
HETATM    5  C   LIG     1      15.451  31.065  13.541  1.00  0.00     0.018 A 
HETATM    6  C   LIG     1      16.461  32.044  13.570  1.00  0.00     0.001 A 
HETATM    7  C   LIG     1      16.666  32.827  14.728  1.00  0.00     0.001 A 
HETATM    8  C   LIG     1      15.862  32.639  15.868  1.00  0.00     0.018 A 
HETATM    9  C   LIG     1      14.870  31.662  15.810  1.00  0.00     0.056 A 
HETATM   10  C   LIG     1      13.889  31.229  16.798  1.00  0.00     0.302 A 
HETATM   11  O   LIG     1      13.757  31.693  17.960  1.00  0.00    -0.259 OA
ENDROOT
TORSDOF 0
ENDMDL
MODEL 17
REMARK VINA RESULT:      -5.3      8.415     10.634
REMARK  0 active torsions:
REMARK  status: ('A' for Active; 'I' for Inactive)
ROOT
HETATM    1  O   LIG     1      14.986  32.990  18.358  1.00  0.00    -0.259 OA
HETATM    2  C   LIG     1      14.657  32.258  17.389  1.00  0.00     0.302 A 
HETATM    3  O   LIG     1      13.595  31.354  17.415  1.00  0.00    -0.237 OA
HETATM    4  C   LIG     1      15.309  32.219  16.086  1.00  0.00     0.056 A 
HETATM    5  C   LIG     1      16.398  32.926  15.582  1.00  0.00     0.018 A 
HETATM    6  C   LIG     1      16.800  32.661  14.259  1.00  0.00     0.001 A 
HETATM    7  C   LIG     1      16.110  31.707  13.479  1.00  0.00     0.001 A 
HETATM    8  C   LIG     1      15.013  31.007  14.015  1.00  0.00     0.018 A 
HETATM    9  C   LIG     1      14.638  31.290  15.327  1.00  0.00     0.056 A 
HETATM   10  C   LIG     1      13.568  30.751  16.159  1.00  0.00     0.302 A 
HETATM   11  O   LIG     1      12.736  29.873  15.813  1.00  0.00    -0.259 OA
ENDROOT
TORSDOF 0
ENDMDL
MODEL 18
REMARK VINA RESULT:      -4.7     11.263     12.880
REMARK  0 active torsions:
REMARK  status: ('A' for Active; 'I' for Inactive)
ROOT
HETATM    1  O   LIG     1      18.490  32.934  14.425  1.00  0.00    -0.259 OA
HETATM    2  C   LIG     1      18.319  33.675  13.422  1.00  0.00     0.302 A 
HETATM    3  O   LIG     1      17.183  34.454  13.207  1.00  0.00    -0.237 OA
HETATM    4  C   LIG     1      19.258  33.853  12.320  1.00  0.00     0.056 A 
HETATM    5  C   LIG     1      20.514  33.297  12.084  1.00  0.00     0.018 A 
HETATM    6  C   LIG     1      21.188  33.673  10.907  1.00  0.00     0.001 A 
HETATM    7  C   LIG     1      20.599  34.586  10.005  1.00  0.00     0.001 A 
HETATM    8  C   LIG     1      19.328  35.131  10.269  1.00  0.00     0.018 A 
HETATM    9  C   LIG     1      18.685  34.742  11.442  1.00  0.00     0.056 A 
HETATM   10  C   LIG     1      17.389  35.115  11.997  1.00  0.00     0.302 A 
HETATM   11  O   LIG     1      16.566  35.913  11.478  1.00  0.00    -0.259 OA
ENDROOT
TORSDOF 0
ENDMDL
MODEL 19
REMARK VINA RESULT:      -4.7     16.500     17.182
REMARK  0 active torsions:
REMARK  status: ('A' for Active; 'I' for Inactive)
ROOT
HETATM    1  O   LIG     1       4.223  44.079  34.002  1.00  0.00    -0.259 OA
HETATM    2  C   LIG     1       4.029  42.903  33.596  1.00  0.00     0.302 A 
HETATM    3  O   LIG     1       3.591  42.579  32.312  1.00  0.00    -0.237 OA
HETATM    4  C   LIG     1       4.222  41.686  34.376  1.00  0.00     0.056 A 
HETATM    5  C   LIG     1       4.643  41.494  35.690  1.00  0.00     0.018 A 
HETATM    6  C   LIG     1       4.731  40.173  36.166  1.00  0.00     0.001 A 
HETATM    7  C   LIG     1       4.399  39.086  35.327  1.00  0.00     0.001 A 
HETATM    8  C   LIG     1       3.976  39.310  34.003  1.00  0.00     0.018 A 
HETATM    9  C   LIG     1       3.899  40.629  33.559  1.00  0.00     0.056 A 
HETATM   10  C   LIG     1       3.505  41.188  32.271  1.00  0.00     0.302 A 
HETATM   11  O   LIG     1       3.140  40.531  31.262  1.00  0.00    -0.259 OA
ENDROOT
TORSDOF 0
ENDMDL
MODEL 20
REMARK VINA RESULT:      -4.6     16.558     17.210
REMARK  0 active torsions:
REMARK  status: ('A' for Active; 'I' for Inactive)
ROOT
HETATM    1  O   LIG     1       3.378  45.053  30.696  1.00  0.00    -0.259 OA
HETATM    2  C   LIG     1       3.564  44.259  31.654  1.00  0.00     0.302 A 
HETATM    3  O   LIG     1       3.921  44.654  32.942  1.00  0.00    -0.237 OA
HETATM    4  C   LIG     1       3.441  42.807  31.598  1.00  0.00     0.056 A 
HETATM    5  C   LIG     1       3.109  41.952  30.549  1.00  0.00     0.018 A 
HETATM    6  C   LIG     1       3.073  40.570  30.812  1.00  0.00     0.001 A 
HETATM    7  C   LIG     1       3.366  40.080  32.104  1.00  0.00     0.001 A 
HETATM    8  C   LIG     1       3.699  40.967  33.145  1.00  0.00     0.018 A 
HETATM    9  C   LIG     1       3.726  42.329  32.855  1.00  0.00     0.056 A 
HETATM   10  C   LIG     1       4.026  43.484  33.693  1.00  0.00     0.302 A 
HETATM   11  O   LIG     1       4.335  43.451  34.912  1.00  0.00    -0.259 OA
ENDROOT
TORSDOF 0
ENDMDL
