MODEL 1
REMARK VINA RESULT:      -9.8      0.000      0.000
REMARK  9 active torsions:
REMARK  status: ('A' for Active; 'I' for Inactive)
REMARK    1  A    between atoms: C_2  and  C_11 
REMARK    2  A    between atoms: C_2  and  O_3 
REMARK    3  A    between atoms: O_3  and  C_4 
REMARK    4  A    between atoms: C_4  and  C_5 
REMARK    5  A    between atoms: C_16  and  C_17 
REMARK    6  A    between atoms: C_17  and  O_18 
REMARK    7  A    between atoms: O_18  and  C_19 
REMARK    8  A    between atoms: C_19  and  C_20 
REMARK    9  A    between atoms: C_20  and  C_21 
ROOT
HETATM    1  C   LIG     1      17.908  36.997  20.955  1.00  0.00     0.055 A 
HETATM    2  C   LIG     1      18.735  36.888  19.825  1.00  0.00     0.018 A 
HETATM    3  C   LIG     1      19.454  37.988  19.362  1.00  0.00     0.001 A 
HETATM    4  C   LIG     1      19.363  39.210  20.027  1.00  0.00     0.001 A 
HETATM    5  C   LIG     1      18.564  39.332  21.164  1.00  0.00     0.018 A 
HETATM    6  C   LIG     1      17.832  38.231  21.655  1.00  0.00     0.055 A 
ENDROOT
BRANCH   1   7
HETATM    7  C   LIG     1      17.109  35.813  21.330  1.00  0.00     0.294 C 
HETATM    8  O   LIG     1      17.304  35.278  22.454  1.00  0.00    -0.259 OA
BRANCH   7   9
HETATM    9  O   LIG     1      16.172  35.236  20.460  1.00  0.00    -0.313 OA
BRANCH   9  10
HETATM   10  C   LIG     1      15.699  33.891  20.547  1.00  0.00     0.217 C 
BRANCH  10  11
HETATM   11  C   LIG     1      15.262  33.382  19.199  1.00  0.00    -0.034 A 
HETATM   12  C   LIG     1      14.795  32.065  19.051  1.00  0.00     0.009 A 
HETATM   13  C   LIG     1      14.360  31.609  17.802  1.00  0.00     0.001 A 
HETATM   14  C   LIG     1      14.397  32.459  16.695  1.00  0.00     0.000 A 
HETATM   15  C   LIG     1      14.870  33.767  16.832  1.00  0.00     0.001 A 
HETATM   16  C   LIG     1      15.303  34.228  18.079  1.00  0.00     0.009 A 
ENDBRANCH  10  11
ENDBRANCH   9  10
ENDBRANCH   7   9
ENDBRANCH   1   7
BRANCH   6  17
HETATM   17  C   LIG     1      17.037  38.400  22.901  1.00  0.00     0.294 C 
HETATM   18  O   LIG     1      15.804  38.656  22.829  1.00  0.00    -0.259 OA
BRANCH  17  19
HETATM   19  O   LIG     1      17.651  38.290  24.154  1.00  0.00    -0.317 OA
BRANCH  19  20
HETATM   20  C   LIG     1      17.233  37.373  25.164  1.00  0.00     0.179 C 
BRANCH  20  21
HETATM   21  C   LIG     1      18.366  37.078  26.158  1.00  0.00     0.026 C 
BRANCH  21  22
HETATM   22  C   LIG     1      18.476  35.591  26.535  1.00  0.00    -0.002 C 
HETATM   23  C   LIG     1      17.324  34.746  25.990  1.00  0.00     0.005 C 
ENDBRANCH  21  22
ENDBRANCH  20  21
ENDBRANCH  19  20
ENDBRANCH  17  19
ENDBRANCH   6  17
TORSDOF 9
ENDMDL
MODEL 2
REMARK VINA RESULT:      -8.6      4.606      8.170
REMARK  9 active torsions:
REMARK  status: ('A' for Active; 'I' for Inactive)
REMARK    1  A    between atoms: C_2  and  C_11 
REMARK    2  A    between atoms: C_2  and  O_3 
REMARK    3  A    between atoms: O_3  and  C_4 
REMARK    4  A    between atoms: C_4  and  C_5 
REMARK    5  A    between atoms: C_16  and  C_17 
REMARK    6  A    between atoms: C_17  and  O_18 
REMARK    7  A    between atoms: O_18  and  C_19 
REMARK    8  A    between atoms: C_19  and  C_20 
REMARK    9  A    between atoms: C_20  and  C_21 
ROOT
HETATM    1  C   LIG     1      15.425  31.795  15.217  1.00  0.00     0.055 A 
HETATM    2  C   LIG     1      14.982  30.711  14.441  1.00  0.00     0.018 A 
HETATM    3  C   LIG     1      13.803  30.042  14.764  1.00  0.00     0.001 A 
HETATM    4  C   LIG     1      13.047  30.451  15.861  1.00  0.00     0.001 A 
HETATM    5  C   LIG     1      13.459  31.540  16.630  1.00  0.00     0.018 A 
HETATM    6  C   LIG     1      14.645  32.237  16.319  1.00  0.00     0.055 A 
ENDROOT
BRANCH   1   7
HETATM    7  C   LIG     1      16.727  32.395  14.866  1.00  0.00     0.294 C 
HETATM    8  O   LIG     1      17.743  32.082  15.543  1.00  0.00    -0.259 OA
BRANCH   7   9
HETATM    9  O   LIG     1      16.866  33.335  13.835  1.00  0.00    -0.313 OA
BRANCH   9  10
HETATM   10  C   LIG     1      17.931  34.282  13.733  1.00  0.00     0.217 C 
BRANCH  10  11
HETATM   11  C   LIG     1      19.001  33.796  12.792  1.00  0.00    -0.034 A 
HETATM   12  C   LIG     1      18.682  32.922  11.739  1.00  0.00     0.009 A 
HETATM   13  C   LIG     1      19.676  32.499  10.850  1.00  0.00     0.001 A 
HETATM   14  C   LIG     1      20.992  32.938  11.011  1.00  0.00     0.000 A 
HETATM   15  C   LIG     1      21.319  33.800  12.063  1.00  0.00     0.001 A 
HETATM   16  C   LIG     1      20.328  34.227  12.952  1.00  0.00     0.009 A 
ENDBRANCH  10  11
ENDBRANCH   9  10
ENDBRANCH   7   9
ENDBRANCH   1   7
BRANCH   6  17
HETATM   17  C   LIG     1      15.012  33.423  17.138  1.00  0.00     0.294 C 
HETATM   18  O   LIG     1      14.673  34.578  16.757  1.00  0.00    -0.259 OA
BRANCH  17  19
HETATM   19  O   LIG     1      15.742  33.270  18.322  1.00  0.00    -0.317 OA
BRANCH  19  20
HETATM   20  C   LIG     1      15.236  32.622  19.487  1.00  0.00     0.179 C 
BRANCH  20  21
HETATM   21  C   LIG     1      15.108  33.600  20.663  1.00  0.00     0.026 C 
BRANCH  21  22
HETATM   22  C   LIG     1      16.074  34.794  20.575  1.00  0.00    -0.002 C 
HETATM   23  C   LIG     1      16.813  35.067  21.884  1.00  0.00     0.005 C 
ENDBRANCH  21  22
ENDBRANCH  20  21
ENDBRANCH  19  20
ENDBRANCH  17  19
ENDBRANCH   6  17
TORSDOF 9
ENDMDL
MODEL 3
REMARK VINA RESULT:      -8.5      3.712      9.140
REMARK  9 active torsions:
REMARK  status: ('A' for Active; 'I' for Inactive)
REMARK    1  A    between atoms: C_2  and  C_11 
REMARK    2  A    between atoms: C_2  and  O_3 
REMARK    3  A    between atoms: O_3  and  C_4 
REMARK    4  A    between atoms: C_4  and  C_5 
REMARK    5  A    between atoms: C_16  and  C_17 
REMARK    6  A    between atoms: C_17  and  O_18 
REMARK    7  A    between atoms: O_18  and  C_19 
REMARK    8  A    between atoms: C_19  and  C_20 
REMARK    9  A    between atoms: C_20  and  C_21 
ROOT
HETATM    1  C   LIG     1      14.682  32.277  16.403  1.00  0.00     0.055 A 
HETATM    2  C   LIG     1      13.505  31.590  16.745  1.00  0.00     0.018 A 
HETATM    3  C   LIG     1      13.058  30.521  15.971  1.00  0.00     0.001 A 
HETATM    4  C   LIG     1      13.783  30.119  14.851  1.00  0.00     0.001 A 
HETATM    5  C   LIG     1      14.966  30.776  14.509  1.00  0.00     0.018 A 
HETATM    6  C   LIG     1      15.443  31.856  15.280  1.00  0.00     0.055 A 
ENDROOT
BRANCH   1   7
HETATM    7  C   LIG     1      15.043  33.455  17.218  1.00  0.00     0.294 C 
HETATM    8  O   LIG     1      14.761  34.603  16.785  1.00  0.00    -0.259 OA
BRANCH   7   9
HETATM    9  O   LIG     1      15.729  33.341  18.436  1.00  0.00    -0.313 OA
BRANCH   9  10
HETATM   10  C   LIG     1      15.152  33.578  19.722  1.00  0.00     0.217 C 
BRANCH  10  11
HETATM   11  C   LIG     1      15.944  34.603  20.490  1.00  0.00    -0.034 A 
HETATM   12  C   LIG     1      16.696  35.579  19.814  1.00  0.00     0.009 A 
HETATM   13  C   LIG     1      17.404  36.546  20.534  1.00  0.00     0.001 A 
HETATM   14  C   LIG     1      17.373  36.540  21.930  1.00  0.00     0.000 A 
HETATM   15  C   LIG     1      16.636  35.567  22.611  1.00  0.00     0.001 A 
HETATM   16  C   LIG     1      15.925  34.599  21.894  1.00  0.00     0.009 A 
ENDBRANCH  10  11
ENDBRANCH   9  10
ENDBRANCH   7   9
ENDBRANCH   1   7
BRANCH   6  17
HETATM   17  C   LIG     1      16.736  32.487  14.903  1.00  0.00     0.294 C 
HETATM   18  O   LIG     1      17.790  32.175  15.524  1.00  0.00    -0.259 OA
BRANCH  17  19
HETATM   19  O   LIG     1      16.791  33.434  13.875  1.00  0.00    -0.317 OA
BRANCH  19  20
HETATM   20  C   LIG     1      17.978  34.130  13.501  1.00  0.00     0.179 C 
BRANCH  20  21
HETATM   21  C   LIG     1      18.689  33.439  12.329  1.00  0.00     0.026 C 
BRANCH  21  22
HETATM   22  C   LIG     1      19.881  34.241  11.778  1.00  0.00    -0.002 C 
HETATM   23  C   LIG     1      21.112  34.184  12.683  1.00  0.00     0.005 C 
ENDBRANCH  21  22
ENDBRANCH  20  21
ENDBRANCH  19  20
ENDBRANCH  17  19
ENDBRANCH   6  17
TORSDOF 9
ENDMDL
MODEL 4
REMARK VINA RESULT:      -7.6      2.503      7.994
REMARK  9 active torsions:
REMARK  status: ('A' for Active; 'I' for Inactive)
REMARK    1  A    between atoms: C_2  and  C_11 
REMARK    2  A    between atoms: C_2  and  O_3 
REMARK    3  A    between atoms: O_3  and  C_4 
REMARK    4  A    between atoms: C_4  and  C_5 
REMARK    5  A    between atoms: C_16  and  C_17 
REMARK    6  A    between atoms: C_17  and  O_18 
REMARK    7  A    between atoms: O_18  and  C_19 
REMARK    8  A    between atoms: C_19  and  C_20 
REMARK    9  A    between atoms: C_20  and  C_21 
ROOT
HETATM    1  C   LIG     1      15.252  33.430  19.436  1.00  0.00     0.055 A 
HETATM    2  C   LIG     1      15.107  32.370  20.346  1.00  0.00     0.018 A 
HETATM    3  C   LIG     1      14.671  31.119  19.915  1.00  0.00     0.001 A 
HETATM    4  C   LIG     1      14.382  30.907  18.568  1.00  0.00     0.001 A 
HETATM    5  C   LIG     1      14.542  31.942  17.646  1.00  0.00     0.018 A 
HETATM    6  C   LIG     1      14.987  33.215  18.057  1.00  0.00     0.055 A 
ENDROOT
BRANCH   1   7
HETATM    7  C   LIG     1      15.629  34.749  19.982  1.00  0.00     0.294 C 
HETATM    8  O   LIG     1      14.772  35.671  19.993  1.00  0.00    -0.259 OA
BRANCH   7   9
HETATM    9  O   LIG     1      16.924  35.023  20.449  1.00  0.00    -0.313 OA
BRANCH   9  10
HETATM   10  C   LIG     1      17.238  35.968  21.473  1.00  0.00     0.217 C 
BRANCH  10  11
HETATM   11  C   LIG     1      18.046  37.114  20.925  1.00  0.00    -0.034 A 
HETATM   12  C   LIG     1      18.890  36.927  19.817  1.00  0.00     0.009 A 
HETATM   13  C   LIG     1      19.614  38.003  19.293  1.00  0.00     0.001 A 
HETATM   14  C   LIG     1      19.507  39.267  19.877  1.00  0.00     0.000 A 
HETATM   15  C   LIG     1      18.678  39.459  20.986  1.00  0.00     0.001 A 
HETATM   16  C   LIG     1      17.951  38.387  21.511  1.00  0.00     0.009 A 
ENDBRANCH  10  11
ENDBRANCH   9  10
ENDBRANCH   7   9
ENDBRANCH   1   7
BRANCH   6  17
HETATM   17  C   LIG     1      15.191  34.268  17.026  1.00  0.00     0.294 C 
HETATM   18  O   LIG     1      14.204  34.931  16.603  1.00  0.00    -0.259 OA
BRANCH  17  19
HETATM   19  O   LIG     1      16.468  34.520  16.512  1.00  0.00    -0.317 OA
BRANCH  19  20
HETATM   20  C   LIG     1      16.883  34.143  15.201  1.00  0.00     0.179 C 
BRANCH  20  21
HETATM   21  C   LIG     1      16.942  32.616  15.048  1.00  0.00     0.026 C 
BRANCH  21  22
HETATM   22  C   LIG     1      16.007  32.074  13.954  1.00  0.00    -0.002 C 
HETATM   23  C   LIG     1      15.436  30.694  14.281  1.00  0.00     0.005 C 
ENDBRANCH  21  22
ENDBRANCH  20  21
ENDBRANCH  19  20
ENDBRANCH  17  19
ENDBRANCH   6  17
TORSDOF 9
ENDMDL
MODEL 5
REMARK VINA RESULT:      -7.3      2.097      7.955
REMARK  9 active torsions:
REMARK  status: ('A' for Active; 'I' for Inactive)
REMARK    1  A    between atoms: C_2  and  C_11 
REMARK    2  A    between atoms: C_2  and  O_3 
REMARK    3  A    between atoms: O_3  and  C_4 
REMARK    4  A    between atoms: C_4  and  C_5 
REMARK    5  A    between atoms: C_16  and  C_17 
REMARK    6  A    between atoms: C_17  and  O_18 
REMARK    7  A    between atoms: O_18  and  C_19 
REMARK    8  A    between atoms: C_19  and  C_20 
REMARK    9  A    between atoms: C_20  and  C_21 
ROOT
HETATM    1  C   LIG     1      15.279  33.591  19.479  1.00  0.00     0.055 A 
HETATM    2  C   LIG     1      15.161  32.571  20.438  1.00  0.00     0.018 A 
HETATM    3  C   LIG     1      14.760  31.290  20.065  1.00  0.00     0.001 A 
HETATM    4  C   LIG     1      14.479  31.007  18.730  1.00  0.00     0.001 A 
HETATM    5  C   LIG     1      14.611  32.002  17.760  1.00  0.00     0.018 A 
HETATM    6  C   LIG     1      15.021  33.304  18.111  1.00  0.00     0.055 A 
ENDROOT
BRANCH   1   7
HETATM    7  C   LIG     1      15.620  34.943  19.963  1.00  0.00     0.294 C 
HETATM    8  O   LIG     1      14.688  35.742  20.246  1.00  0.00    -0.259 OA
BRANCH   7   9
HETATM    9  O   LIG     1      16.947  35.385  20.076  1.00  0.00    -0.313 OA
BRANCH   9  10
HETATM   10  C   LIG     1      17.351  36.592  20.726  1.00  0.00     0.217 C 
BRANCH  10  11
HETATM   11  C   LIG     1      17.283  36.450  22.223  1.00  0.00    -0.034 A 
HETATM   12  C   LIG     1      17.205  35.179  22.818  1.00  0.00     0.009 A 
HETATM   13  C   LIG     1      17.174  35.053  24.210  1.00  0.00     0.001 A 
HETATM   14  C   LIG     1      17.211  36.194  25.016  1.00  0.00     0.000 A 
HETATM   15  C   LIG     1      17.278  37.462  24.433  1.00  0.00     0.001 A 
HETATM   16  C   LIG     1      17.312  37.592  23.041  1.00  0.00     0.009 A 
ENDBRANCH  10  11
ENDBRANCH   9  10
ENDBRANCH   7   9
ENDBRANCH   1   7
BRANCH   6  17
HETATM   17  C   LIG     1      15.198  34.313  17.033  1.00  0.00     0.294 C 
HETATM   18  O   LIG     1      14.193  34.917  16.568  1.00  0.00    -0.259 OA
BRANCH  17  19
HETATM   19  O   LIG     1      16.471  34.588  16.520  1.00  0.00    -0.317 OA
BRANCH  19  20
HETATM   20  C   LIG     1      16.904  34.192  15.220  1.00  0.00     0.179 C 
BRANCH  20  21
HETATM   21  C   LIG     1      16.958  32.664  15.087  1.00  0.00     0.026 C 
BRANCH  21  22
HETATM   22  C   LIG     1      16.057  32.115  13.967  1.00  0.00    -0.002 C 
HETATM   23  C   LIG     1      15.384  30.792  14.333  1.00  0.00     0.005 C 
ENDBRANCH  21  22
ENDBRANCH  20  21
ENDBRANCH  19  20
ENDBRANCH  17  19
ENDBRANCH   6  17
TORSDOF 9
ENDMDL
MODEL 6
REMARK VINA RESULT:      -7.2      7.533     10.425
REMARK  9 active torsions:
REMARK  status: ('A' for Active; 'I' for Inactive)
REMARK    1  A    between atoms: C_2  and  C_11 
REMARK    2  A    between atoms: C_2  and  O_3 
REMARK    3  A    between atoms: O_3  and  C_4 
REMARK    4  A    between atoms: C_4  and  C_5 
REMARK    5  A    between atoms: C_16  and  C_17 
REMARK    6  A    between atoms: C_17  and  O_18 
REMARK    7  A    between atoms: O_18  and  C_19 
REMARK    8  A    between atoms: C_19  and  C_20 
REMARK    9  A    between atoms: C_20  and  C_21 
ROOT
HETATM    1  C   LIG     1      14.656  30.715  14.971  1.00  0.00     0.055 A 
HETATM    2  C   LIG     1      13.374  30.353  15.417  1.00  0.00     0.018 A 
HETATM    3  C   LIG     1      12.737  31.086  16.417  1.00  0.00     0.001 A 
HETATM    4  C   LIG     1      13.369  32.193  16.980  1.00  0.00     0.001 A 
HETATM    5  C   LIG     1      14.633  32.581  16.535  1.00  0.00     0.018 A 
HETATM    6  C   LIG     1      15.295  31.860  15.520  1.00  0.00     0.055 A 
ENDROOT
BRANCH   1   7
HETATM    7  C   LIG     1      15.302  29.839  13.974  1.00  0.00     0.294 C 
HETATM    8  O   LIG     1      15.811  30.358  12.946  1.00  0.00    -0.259 OA
BRANCH   7   9
HETATM    9  O   LIG     1      15.328  28.442  14.110  1.00  0.00    -0.313 OA
BRANCH   9  10
HETATM   10  C   LIG     1      15.501  27.522  13.031  1.00  0.00     0.217 C 
BRANCH  10  11
HETATM   11  C   LIG     1      14.183  26.934  12.604  1.00  0.00    -0.034 A 
HETATM   12  C   LIG     1      14.099  26.129  11.455  1.00  0.00     0.009 A 
HETATM   13  C   LIG     1      12.877  25.560  11.082  1.00  0.00     0.001 A 
HETATM   14  C   LIG     1      11.732  25.798  11.846  1.00  0.00     0.000 A 
HETATM   15  C   LIG     1      11.805  26.606  12.985  1.00  0.00     0.001 A 
HETATM   16  C   LIG     1      13.025  27.174  13.363  1.00  0.00     0.009 A 
ENDBRANCH  10  11
ENDBRANCH   9  10
ENDBRANCH   7   9
ENDBRANCH   1   7
BRANCH   6  17
HETATM   17  C   LIG     1      16.618  32.346  15.044  1.00  0.00     0.294 C 
HETATM   18  O   LIG     1      17.676  31.882  15.551  1.00  0.00    -0.259 OA
BRANCH  17  19
HETATM   19  O   LIG     1      16.697  33.325  14.046  1.00  0.00    -0.317 OA
BRANCH  19  20
HETATM   20  C   LIG     1      17.615  33.272  12.956  1.00  0.00     0.179 C 
BRANCH  20  21
HETATM   21  C   LIG     1      18.917  34.019  13.282  1.00  0.00     0.026 C 
BRANCH  21  22
HETATM   22  C   LIG     1      20.029  33.791  12.244  1.00  0.00    -0.002 C 
HETATM   23  C   LIG     1      21.370  34.397  12.657  1.00  0.00     0.005 C 
ENDBRANCH  21  22
ENDBRANCH  20  21
ENDBRANCH  19  20
ENDBRANCH  17  19
ENDBRANCH   6  17
TORSDOF 9
ENDMDL
MODEL 7
REMARK VINA RESULT:      -7.1      7.319     11.041
REMARK  9 active torsions:
REMARK  status: ('A' for Active; 'I' for Inactive)
REMARK    1  A    between atoms: C_2  and  C_11 
REMARK    2  A    between atoms: C_2  and  O_3 
REMARK    3  A    between atoms: O_3  and  C_4 
REMARK    4  A    between atoms: C_4  and  C_5 
REMARK    5  A    between atoms: C_16  and  C_17 
REMARK    6  A    between atoms: C_17  and  O_18 
REMARK    7  A    between atoms: O_18  and  C_19 
REMARK    8  A    between atoms: C_19  and  C_20 
REMARK    9  A    between atoms: C_20  and  C_21 
ROOT
HETATM    1  C   LIG     1      15.644  32.101  15.609  1.00  0.00     0.055 A 
HETATM    2  C   LIG     1      15.047  32.820  16.659  1.00  0.00     0.018 A 
HETATM    3  C   LIG     1      13.780  32.474  17.125  1.00  0.00     0.001 A 
HETATM    4  C   LIG     1      13.095  31.403  16.555  1.00  0.00     0.001 A 
HETATM    5  C   LIG     1      13.681  30.664  15.526  1.00  0.00     0.018 A 
HETATM    6  C   LIG     1      14.964  30.990  15.042  1.00  0.00     0.055 A 
ENDROOT
BRANCH   1   7
HETATM    7  C   LIG     1      16.947  32.583  15.110  1.00  0.00     0.294 C 
HETATM    8  O   LIG     1      17.999  32.024  15.518  1.00  0.00    -0.259 OA
BRANCH   7   9
HETATM    9  O   LIG     1      17.056  33.671  14.231  1.00  0.00    -0.313 OA
BRANCH   9  10
HETATM   10  C   LIG     1      17.160  33.564  12.811  1.00  0.00     0.217 C 
BRANCH  10  11
HETATM   11  C   LIG     1      18.531  33.968  12.336  1.00  0.00    -0.034 A 
HETATM   12  C   LIG     1      19.663  33.723  13.131  1.00  0.00     0.009 A 
HETATM   13  C   LIG     1      20.937  34.072  12.670  1.00  0.00     0.001 A 
HETATM   14  C   LIG     1      21.087  34.674  11.419  1.00  0.00     0.000 A 
HETATM   15  C   LIG     1      19.964  34.931  10.626  1.00  0.00     0.001 A 
HETATM   16  C   LIG     1      18.690  34.581  11.082  1.00  0.00     0.009 A 
ENDBRANCH  10  11
ENDBRANCH   9  10
ENDBRANCH   7   9
ENDBRANCH   1   7
BRANCH   6  17
HETATM   17  C   LIG     1      15.565  30.137  13.981  1.00  0.00     0.294 C 
HETATM   18  O   LIG     1      15.807  30.628  12.844  1.00  0.00    -0.259 OA
BRANCH  17  19
HETATM   19  O   LIG     1      15.852  28.790  14.231  1.00  0.00    -0.317 OA
BRANCH  19  20
HETATM   20  C   LIG     1      15.354  27.714  13.438  1.00  0.00     0.179 C 
BRANCH  20  21
HETATM   21  C   LIG     1      16.107  27.604  12.104  1.00  0.00     0.026 C 
BRANCH  21  22
HETATM   22  C   LIG     1      16.072  26.191  11.497  1.00  0.00    -0.002 C 
HETATM   23  C   LIG     1      15.136  26.078  10.294  1.00  0.00     0.005 C 
ENDBRANCH  21  22
ENDBRANCH  20  21
ENDBRANCH  19  20
ENDBRANCH  17  19
ENDBRANCH   6  17
TORSDOF 9
ENDMDL
MODEL 8
REMARK VINA RESULT:      -6.9      1.676      7.049
REMARK  9 active torsions:
REMARK  status: ('A' for Active; 'I' for Inactive)
REMARK    1  A    between atoms: C_2  and  C_11 
REMARK    2  A    between atoms: C_2  and  O_3 
REMARK    3  A    between atoms: O_3  and  C_4 
REMARK    4  A    between atoms: C_4  and  C_5 
REMARK    5  A    between atoms: C_16  and  C_17 
REMARK    6  A    between atoms: C_17  and  O_18 
REMARK    7  A    between atoms: O_18  and  C_19 
REMARK    8  A    between atoms: C_19  and  C_20 
REMARK    9  A    between atoms: C_20  and  C_21 
ROOT
HETATM    1  C   LIG     1      15.173  33.815  20.655  1.00  0.00     0.055 A 
HETATM    2  C   LIG     1      14.641  32.689  21.305  1.00  0.00     0.018 A 
HETATM    3  C   LIG     1      14.398  31.511  20.601  1.00  0.00     0.001 A 
HETATM    4  C   LIG     1      14.691  31.439  19.240  1.00  0.00     0.001 A 
HETATM    5  C   LIG     1      15.240  32.540  18.582  1.00  0.00     0.018 A 
HETATM    6  C   LIG     1      15.501  33.740  19.274  1.00  0.00     0.055 A 
ENDROOT
BRANCH   1   7
HETATM    7  C   LIG     1      15.317  35.053  21.446  1.00  0.00     0.294 C 
HETATM    8  O   LIG     1      14.416  35.929  21.374  1.00  0.00    -0.259 OA
BRANCH   7   9
HETATM    9  O   LIG     1      16.445  35.306  22.241  1.00  0.00    -0.313 OA
BRANCH   9  10
HETATM   10  C   LIG     1      16.715  36.544  22.902  1.00  0.00     0.217 C 
BRANCH  10  11
HETATM   11  C   LIG     1      17.292  36.312  24.273  1.00  0.00    -0.034 A 
HETATM   12  C   LIG     1      17.320  35.021  24.827  1.00  0.00     0.009 A 
HETATM   13  C   LIG     1      17.886  34.808  26.088  1.00  0.00     0.001 A 
HETATM   14  C   LIG     1      18.419  35.882  26.806  1.00  0.00     0.000 A 
HETATM   15  C   LIG     1      18.386  37.171  26.266  1.00  0.00     0.001 A 
HETATM   16  C   LIG     1      17.823  37.387  25.004  1.00  0.00     0.009 A 
ENDBRANCH  10  11
ENDBRANCH   9  10
ENDBRANCH   7   9
ENDBRANCH   1   7
BRANCH   6  17
HETATM   17  C   LIG     1      16.137  34.866  18.538  1.00  0.00     0.294 C 
HETATM   18  O   LIG     1      16.031  34.934  17.283  1.00  0.00    -0.259 OA
BRANCH  17  19
HETATM   19  O   LIG     1      16.864  35.843  19.227  1.00  0.00    -0.317 OA
BRANCH  19  20
HETATM   20  C   LIG     1      18.062  36.437  18.730  1.00  0.00     0.179 C 
BRANCH  20  21
HETATM   21  C   LIG     1      18.973  36.904  19.874  1.00  0.00     0.026 C 
BRANCH  21  22
HETATM   22  C   LIG     1      19.757  38.187  19.547  1.00  0.00    -0.002 C 
HETATM   23  C   LIG     1      19.050  39.078  18.526  1.00  0.00     0.005 C 
ENDBRANCH  21  22
ENDBRANCH  20  21
ENDBRANCH  19  20
ENDBRANCH  17  19
ENDBRANCH   6  17
TORSDOF 9
ENDMDL
