REMARK  9 active torsions:
REMARK  status: ('A' for Active; 'I' for Inactive)
REMARK    1  A    between atoms: C_2  and  C_11 
REMARK    2  A    between atoms: C_2  and  O_3 
REMARK    3  A    between atoms: O_3  and  C_4 
REMARK    4  A    between atoms: C_4  and  C_5 
REMARK    5  A    between atoms: C_16  and  C_17 
REMARK    6  A    between atoms: C_17  and  O_18 
REMARK    7  A    between atoms: O_18  and  C_19 
REMARK    8  A    between atoms: C_19  and  C_20 
REMARK    9  A    between atoms: C_20  and  C_21 
ROOT
HETATM    1  C   LIG     1      -0.216   0.946  -0.379  1.00  0.00     0.055 A 
HETATM    2  C   LIG     1      -0.938   2.136  -0.569  1.00  0.00     0.018 A 
HETATM    3  C   LIG     1      -1.013   3.090   0.444  1.00  0.00     0.001 A 
HETATM    4  C   LIG     1      -0.362   2.872   1.657  1.00  0.00     0.001 A 
HETATM    5  C   LIG     1       0.378   1.706   1.856  1.00  0.00     0.018 A 
HETATM    6  C   LIG     1       0.474   0.729   0.844  1.00  0.00     0.055 A 
ENDROOT
BRANCH   1   7
HETATM    7  C   LIG     1      -0.258  -0.055  -1.463  1.00  0.00     0.294 C 
HETATM    8  O   LIG     1       0.325   0.200  -2.550  1.00  0.00    -0.259 OA
BRANCH   7   9
HETATM    9  O   LIG     1      -0.963  -1.262  -1.341  1.00  0.00    -0.313 OA
BRANCH   9  10
HETATM   10  C   LIG     1      -1.773  -1.623  -0.221  1.00  0.00     0.217 C 
BRANCH  10  11
HETATM   11  C   LIG     1      -2.928  -0.671  -0.058  1.00  0.00    -0.034 A 
HETATM   12  C   LIG     1      -3.106   0.037   1.143  1.00  0.00     0.009 A 
HETATM   13  C   LIG     1      -4.163   0.943   1.276  1.00  0.00     0.001 A 
HETATM   14  C   LIG     1      -5.052   1.141   0.217  1.00  0.00     0.000 A 
HETATM   15  C   LIG     1      -4.888   0.433  -0.977  1.00  0.00     0.001 A 
HETATM   16  C   LIG     1      -3.831  -0.472  -1.115  1.00  0.00     0.009 A 
ENDBRANCH  10  11
ENDBRANCH   9  10
ENDBRANCH   7   9
ENDBRANCH   1   7
BRANCH   6  17
HETATM   17  C   LIG     1       1.319  -0.471   1.087  1.00  0.00     0.294 C 
HETATM   18  O   LIG     1       1.694  -0.747   2.260  1.00  0.00    -0.259 OA
BRANCH  17  19
HETATM   19  O   LIG     1       1.713  -1.289   0.022  1.00  0.00    -0.317 OA
BRANCH  19  20
HETATM   20  C   LIG     1       2.604  -2.394   0.159  1.00  0.00     0.179 C 
BRANCH  20  21
HETATM   21  C   LIG     1       4.054  -1.926   0.350  1.00  0.00     0.026 C 
BRANCH  21  22
HETATM   22  C   LIG     1       4.675  -1.324  -0.922  1.00  0.00    -0.002 C 
HETATM   23  C   LIG     1       4.133   0.066  -1.255  1.00  0.00     0.005 C 
ENDBRANCH  21  22
ENDBRANCH  20  21
ENDBRANCH  19  20
ENDBRANCH  17  19
ENDBRANCH   6  17
TORSDOF 9
