REMARK  10 active torsions:
REMARK  status: ('A' for Active; 'I' for Inactive)
REMARK    1  A    between atoms: C_2  and  C_3 
REMARK    2  A    between atoms: C_3  and  C_4 
REMARK    3  A    between atoms: C_4  and  O_5 
REMARK    4  A    between atoms: O_5  and  C_6 
REMARK    5  A    between atoms: C_8  and  C_9 
REMARK       I    between atoms: C_9  and  N_10 
REMARK    6  A    between atoms: N_10  and  C_11 
REMARK    7  A    between atoms: C_11  and  C_12 
REMARK    8  A    between atoms: C_12  and  N_13 
REMARK    9  A    between atoms: N_13  and  C_14 
REMARK   10  A    between atoms: N_13  and  C_16 
ROOT
HETATM    1  C   LIG     1       3.368   0.496   1.434  1.00  0.00     0.165 A 
HETATM    2  C   LIG     1       2.066   0.995   1.434  1.00  0.00     0.076 A 
HETATM    3  C   LIG     1       0.976   0.128   1.259  1.00  0.00     0.048 A 
HETATM    4  C   LIG     1       1.217  -1.264   1.131  1.00  0.00     0.009 A 
HETATM    5  C   LIG     1       0.179  -2.216   1.041  1.00  0.00     0.015 A 
HETATM    6  C   LIG     1       0.475  -3.575   0.909  1.00  0.00     0.001 A 
HETATM    7  C   LIG     1       1.801  -4.008   0.882  1.00  0.00     0.002 A 
HETATM    8  C   LIG     1       2.841  -3.085   0.999  1.00  0.00     0.032 A 
HETATM    9  C   LIG     1       2.559  -1.720   1.133  1.00  0.00     0.070 A 
HETATM   10  N   LIG     1       3.581  -0.839   1.282  1.00  0.00    -0.224 NA
ENDROOT
BRANCH   3  11
HETATM   11  C   LIG     1      -0.380   0.717   1.196  1.00  0.00     0.252 C 
HETATM   12  N   LIG     1      -1.272   0.377   0.124  1.00  0.00    -0.355 N 
HETATM   13  H   LIG     1      -0.882  -0.128  -0.704  1.00  0.00     0.162 HD
HETATM   14  O   LIG     1      -0.726   1.566   2.063  1.00  0.00    -0.268 OA
BRANCH  12  15
HETATM   15  C   LIG     1      -2.642   0.882   0.053  1.00  0.00     0.153 C 
BRANCH  15  16
HETATM   16  C   LIG     1      -3.562  -0.176  -0.563  1.00  0.00     0.292 C 
BRANCH  16  17
HETATM   17  N   LIG     1      -4.966   0.297  -0.549  1.00  0.00     0.089 N 
BRANCH  17  18
HETATM   18  C   LIG     1      -5.910  -0.836  -0.411  1.00  0.00     0.268 C 
HETATM   19  C   LIG     1      -6.123  -1.172   1.063  1.00  0.00     0.037 C 
ENDBRANCH  17  18
BRANCH  17  20
HETATM   20  C   LIG     1      -5.270   1.101  -1.756  1.00  0.00     0.268 C 
HETATM   21  C   LIG     1      -6.316   2.164  -1.434  1.00  0.00     0.037 C 
ENDBRANCH  17  20
ENDBRANCH  16  17
ENDBRANCH  15  16
ENDBRANCH  12  15
ENDBRANCH   3  11
BRANCH   1  22
HETATM   22  O   LIG     1       4.441   1.381   1.594  1.00  0.00    -0.334 OA
BRANCH  22  23
HETATM   23  C   LIG     1       5.811   0.991   1.500  1.00  0.00     0.177 C 
BRANCH  23  24
HETATM   24  C   LIG     1       6.206   0.684   0.050  1.00  0.00     0.026 C 
BRANCH  24  25
HETATM   25  C   LIG     1       6.027   1.909  -0.857  1.00  0.00    -0.002 C 
HETATM   26  C   LIG     1       6.434   1.596  -2.293  1.00  0.00     0.005 C 
ENDBRANCH  24  25
ENDBRANCH  23  24
ENDBRANCH  22  23
ENDBRANCH   1  22
TORSDOF 10
