MODEL 1
REMARK VINA RESULT:      -9.3      0.000      0.000
REMARK  10 active torsions:
REMARK  status: ('A' for Active; 'I' for Inactive)
REMARK    1  A    between atoms: C_2  and  C_3 
REMARK    2  A    between atoms: C_3  and  C_4 
REMARK    3  A    between atoms: C_4  and  O_5 
REMARK    4  A    between atoms: O_5  and  C_6 
REMARK    5  A    between atoms: C_8  and  C_9 
REMARK       I    between atoms: C_9  and  N_10 
REMARK    6  A    between atoms: N_10  and  C_11 
REMARK    7  A    between atoms: C_11  and  C_12 
REMARK    8  A    between atoms: C_12  and  N_13 
REMARK    9  A    between atoms: N_13  and  C_14 
REMARK   10  A    between atoms: N_13  and  C_16 
ROOT
HETATM    1  C   LIG     1      16.880  37.687  23.318  1.00  0.00     0.165 A 
HETATM    2  C   LIG     1      16.459  36.537  22.652  1.00  0.00     0.076 A 
HETATM    3  C   LIG     1      16.933  36.254  21.362  1.00  0.00     0.048 A 
HETATM    4  C   LIG     1      17.879  37.127  20.768  1.00  0.00     0.009 A 
HETATM    5  C   LIG     1      18.475  36.874  19.514  1.00  0.00     0.015 A 
HETATM    6  C   LIG     1      19.397  37.773  18.973  1.00  0.00     0.001 A 
HETATM    7  C   LIG     1      19.752  38.925  19.676  1.00  0.00     0.002 A 
HETATM    8  C   LIG     1      19.196  39.179  20.930  1.00  0.00     0.032 A 
HETATM    9  C   LIG     1      18.272  38.285  21.485  1.00  0.00     0.070 A 
HETATM   10  N   LIG     1      17.768  38.528  22.721  1.00  0.00    -0.224 NA
ENDROOT
BRANCH   3  11
HETATM   11  C   LIG     1      16.400  35.058  20.671  1.00  0.00     0.252 C 
HETATM   12  N   LIG     1      15.790  35.176  19.377  1.00  0.00    -0.355 N 
HETATM   13  H   LIG     1      15.551  36.132  19.027  1.00  0.00     0.162 HD
HETATM   14  O   LIG     1      16.437  33.940  21.255  1.00  0.00    -0.268 OA
BRANCH  12  15
HETATM   15  C   LIG     1      15.308  34.017  18.628  1.00  0.00     0.153 C 
BRANCH  15  16
HETATM   16  C   LIG     1      15.302  34.325  17.128  1.00  0.00     0.292 C 
BRANCH  16  17
HETATM   17  N   LIG     1      14.981  33.102  16.356  1.00  0.00     0.089 N 
BRANCH  17  18
HETATM   18  C   LIG     1      14.350  32.076  17.219  1.00  0.00     0.268 C 
HETATM   19  C   LIG     1      12.911  31.823  16.777  1.00  0.00     0.037 C 
ENDBRANCH  17  18
BRANCH  17  20
HETATM   20  C   LIG     1      16.186  32.564  15.683  1.00  0.00     0.268 C 
HETATM   21  C   LIG     1      15.785  31.597  14.573  1.00  0.00     0.037 C 
ENDBRANCH  17  20
ENDBRANCH  16  17
ENDBRANCH  15  16
ENDBRANCH  12  15
ENDBRANCH   3  11
BRANCH   1  22
HETATM   22  O   LIG     1      16.383  37.959  24.599  1.00  0.00    -0.334 OA
BRANCH  22  23
HETATM   23  C   LIG     1      17.209  38.132  25.750  1.00  0.00     0.177 C 
BRANCH  23  24
HETATM   24  C   LIG     1      18.415  37.185  25.719  1.00  0.00     0.026 C 
BRANCH  24  25
HETATM   25  C   LIG     1      18.195  35.957  26.613  1.00  0.00    -0.002 C 
HETATM   26  C   LIG     1      17.571  34.808  25.828  1.00  0.00     0.005 C 
ENDBRANCH  24  25
ENDBRANCH  23  24
ENDBRANCH  22  23
ENDBRANCH   1  22
TORSDOF 10
ENDMDL
MODEL 2
REMARK VINA RESULT:      -8.2      3.313      9.472
REMARK  10 active torsions:
REMARK  status: ('A' for Active; 'I' for Inactive)
REMARK    1  A    between atoms: C_2  and  C_3 
REMARK    2  A    between atoms: C_3  and  C_4 
REMARK    3  A    between atoms: C_4  and  O_5 
REMARK    4  A    between atoms: O_5  and  C_6 
REMARK    5  A    between atoms: C_8  and  C_9 
REMARK       I    between atoms: C_9  and  N_10 
REMARK    6  A    between atoms: N_10  and  C_11 
REMARK    7  A    between atoms: C_11  and  C_12 
REMARK    8  A    between atoms: C_12  and  N_13 
REMARK    9  A    between atoms: N_13  and  C_14 
REMARK   10  A    between atoms: N_13  and  C_16 
ROOT
HETATM    1  C   LIG     1      17.389  32.872  14.110  1.00  0.00     0.165 A 
HETATM    2  C   LIG     1      16.930  33.473  15.281  1.00  0.00     0.076 A 
HETATM    3  C   LIG     1      15.781  32.987  15.923  1.00  0.00     0.048 A 
HETATM    4  C   LIG     1      15.124  31.848  15.390  1.00  0.00     0.009 A 
HETATM    5  C   LIG     1      14.017  31.238  16.018  1.00  0.00     0.015 A 
HETATM    6  C   LIG     1      13.405  30.122  15.444  1.00  0.00     0.001 A 
HETATM    7  C   LIG     1      13.891  29.586  14.251  1.00  0.00     0.002 A 
HETATM    8  C   LIG     1      15.003  30.157  13.630  1.00  0.00     0.032 A 
HETATM    9  C   LIG     1      15.628  31.276  14.195  1.00  0.00     0.070 A 
HETATM   10  N   LIG     1      16.730  31.797  13.598  1.00  0.00    -0.224 NA
ENDROOT
BRANCH   3  11
HETATM   11  C   LIG     1      15.296  33.704  17.123  1.00  0.00     0.252 C 
HETATM   12  N   LIG     1      15.628  33.232  18.438  1.00  0.00    -0.355 N 
HETATM   13  H   LIG     1      16.042  32.276  18.531  1.00  0.00     0.162 HD
HETATM   14  O   LIG     1      14.540  34.704  16.982  1.00  0.00    -0.268 OA
BRANCH  12  15
HETATM   15  C   LIG     1      15.228  33.941  19.651  1.00  0.00     0.153 C 
BRANCH  15  16
HETATM   16  C   LIG     1      15.935  35.298  19.726  1.00  0.00     0.292 C 
BRANCH  16  17
HETATM   17  N   LIG     1      16.855  35.331  20.887  1.00  0.00     0.089 N 
BRANCH  17  18
HETATM   18  C   LIG     1      16.140  35.010  22.144  1.00  0.00     0.268 C 
HETATM   19  C   LIG     1      17.086  35.130  23.336  1.00  0.00     0.037 C 
ENDBRANCH  17  18
BRANCH  17  20
HETATM   20  C   LIG     1      17.544  36.640  20.984  1.00  0.00     0.268 C 
HETATM   21  C   LIG     1      18.589  36.770  19.880  1.00  0.00     0.037 C 
ENDBRANCH  17  20
ENDBRANCH  16  17
ENDBRANCH  15  16
ENDBRANCH  12  15
ENDBRANCH   3  11
BRANCH   1  22
HETATM   22  O   LIG     1      18.528  33.384  13.477  1.00  0.00    -0.334 OA
BRANCH  22  23
HETATM   23  C   LIG     1      18.537  33.874  12.137  1.00  0.00     0.177 C 
BRANCH  23  24
HETATM   24  C   LIG     1      19.950  34.282  11.701  1.00  0.00     0.026 C 
BRANCH  24  25
HETATM   25  C   LIG     1      21.014  33.773  12.683  1.00  0.00    -0.002 C 
HETATM   26  C   LIG     1      22.059  34.847  12.968  1.00  0.00     0.005 C 
ENDBRANCH  24  25
ENDBRANCH  23  24
ENDBRANCH  22  23
ENDBRANCH   1  22
TORSDOF 10
ENDMDL
MODEL 3
REMARK VINA RESULT:      -7.2      3.983      8.244
REMARK  10 active torsions:
REMARK  status: ('A' for Active; 'I' for Inactive)
REMARK    1  A    between atoms: C_2  and  C_3 
REMARK    2  A    between atoms: C_3  and  C_4 
REMARK    3  A    between atoms: C_4  and  O_5 
REMARK    4  A    between atoms: O_5  and  C_6 
REMARK    5  A    between atoms: C_8  and  C_9 
REMARK       I    between atoms: C_9  and  N_10 
REMARK    6  A    between atoms: N_10  and  C_11 
REMARK    7  A    between atoms: C_11  and  C_12 
REMARK    8  A    between atoms: C_12  and  N_13 
REMARK    9  A    between atoms: N_13  and  C_14 
REMARK   10  A    between atoms: N_13  and  C_16 
ROOT
HETATM    1  C   LIG     1      15.098  33.212  17.098  1.00  0.00     0.165 A 
HETATM    2  C   LIG     1      16.099  33.600  16.209  1.00  0.00     0.076 A 
HETATM    3  C   LIG     1      16.359  32.838  15.059  1.00  0.00     0.048 A 
HETATM    4  C   LIG     1      15.556  31.699  14.793  1.00  0.00     0.009 A 
HETATM    5  C   LIG     1      15.687  30.927  13.618  1.00  0.00     0.015 A 
HETATM    6  C   LIG     1      14.874  29.810  13.411  1.00  0.00     0.001 A 
HETATM    7  C   LIG     1      13.912  29.454  14.356  1.00  0.00     0.002 A 
HETATM    8  C   LIG     1      13.747  30.222  15.510  1.00  0.00     0.032 A 
HETATM    9  C   LIG     1      14.554  31.345  15.730  1.00  0.00     0.070 A 
HETATM   10  N   LIG     1      14.357  32.101  16.840  1.00  0.00    -0.224 NA
ENDROOT
BRANCH   3  11
HETATM   11  C   LIG     1      17.478  33.253  14.185  1.00  0.00     0.252 C 
HETATM   12  N   LIG     1      17.220  33.855  12.908  1.00  0.00    -0.355 N 
HETATM   13  H   LIG     1      16.248  33.811  12.527  1.00  0.00     0.162 HD
HETATM   14  O   LIG     1      18.664  33.021  14.549  1.00  0.00    -0.268 OA
BRANCH  12  15
HETATM   15  C   LIG     1      18.291  34.339  12.038  1.00  0.00     0.153 C 
BRANCH  15  16
HETATM   16  C   LIG     1      19.110  33.161  11.504  1.00  0.00     0.292 C 
BRANCH  16  17
HETATM   17  N   LIG     1      20.499  33.591  11.220  1.00  0.00     0.089 N 
BRANCH  17  18
HETATM   18  C   LIG     1      21.061  32.853  10.065  1.00  0.00     0.268 C 
HETATM   19  C   LIG     1      21.078  31.354  10.352  1.00  0.00     0.037 C 
ENDBRANCH  17  18
BRANCH  17  20
HETATM   20  C   LIG     1      21.359  33.443  12.418  1.00  0.00     0.268 C 
HETATM   21  C   LIG     1      21.921  34.798  12.836  1.00  0.00     0.037 C 
ENDBRANCH  17  20
ENDBRANCH  16  17
ENDBRANCH  15  16
ENDBRANCH  12  15
ENDBRANCH   3  11
BRANCH   1  22
HETATM   22  O   LIG     1      14.867  33.979  18.247  1.00  0.00    -0.334 OA
BRANCH  22  23
HETATM   23  C   LIG     1      15.465  33.706  19.514  1.00  0.00     0.177 C 
BRANCH  23  24
HETATM   24  C   LIG     1      15.838  35.002  20.246  1.00  0.00     0.026 C 
BRANCH  24  25
HETATM   25  C   LIG     1      15.761  34.835  21.769  1.00  0.00    -0.002 C 
HETATM   26  C   LIG     1      17.063  35.264  22.437  1.00  0.00     0.005 C 
ENDBRANCH  24  25
ENDBRANCH  23  24
ENDBRANCH  22  23
ENDBRANCH   1  22
TORSDOF 10
ENDMDL
MODEL 4
REMARK VINA RESULT:      -7.0      3.485     10.060
REMARK  10 active torsions:
REMARK  status: ('A' for Active; 'I' for Inactive)
REMARK    1  A    between atoms: C_2  and  C_3 
REMARK    2  A    between atoms: C_3  and  C_4 
REMARK    3  A    between atoms: C_4  and  O_5 
REMARK    4  A    between atoms: O_5  and  C_6 
REMARK    5  A    between atoms: C_8  and  C_9 
REMARK       I    between atoms: C_9  and  N_10 
REMARK    6  A    between atoms: N_10  and  C_11 
REMARK    7  A    between atoms: C_11  and  C_12 
REMARK    8  A    between atoms: C_12  and  N_13 
REMARK    9  A    between atoms: N_13  and  C_14 
REMARK   10  A    between atoms: N_13  and  C_16 
ROOT
HETATM    1  C   LIG     1      13.656  30.196  15.017  1.00  0.00     0.165 A 
HETATM    2  C   LIG     1      13.700  30.686  16.322  1.00  0.00     0.076 A 
HETATM    3  C   LIG     1      14.656  31.648  16.685  1.00  0.00     0.048 A 
HETATM    4  C   LIG     1      15.541  32.147  15.694  1.00  0.00     0.009 A 
HETATM    5  C   LIG     1      16.472  33.176  15.948  1.00  0.00     0.015 A 
HETATM    6  C   LIG     1      17.325  33.624  14.935  1.00  0.00     0.001 A 
HETATM    7  C   LIG     1      17.254  33.069  13.657  1.00  0.00     0.002 A 
HETATM    8  C   LIG     1      16.320  32.070  13.379  1.00  0.00     0.032 A 
HETATM    9  C   LIG     1      15.458  31.613  14.384  1.00  0.00     0.070 A 
HETATM   10  N   LIG     1      14.531  30.666  14.088  1.00  0.00    -0.224 NA
ENDROOT
BRANCH   3  11
HETATM   11  C   LIG     1      14.707  32.082  18.098  1.00  0.00     0.252 C 
HETATM   12  N   LIG     1      15.389  33.291  18.464  1.00  0.00    -0.355 N 
HETATM   13  H   LIG     1      16.009  33.745  17.755  1.00  0.00     0.162 HD
HETATM   14  O   LIG     1      14.194  31.350  18.988  1.00  0.00    -0.268 OA
BRANCH  12  15
HETATM   15  C   LIG     1      15.411  33.795  19.836  1.00  0.00     0.153 C 
BRANCH  15  16
HETATM   16  C   LIG     1      15.897  35.247  19.856  1.00  0.00     0.292 C 
BRANCH  16  17
HETATM   17  N   LIG     1      16.998  35.404  20.836  1.00  0.00     0.089 N 
BRANCH  17  18
HETATM   18  C   LIG     1      16.526  35.146  22.216  1.00  0.00     0.268 C 
HETATM   19  C   LIG     1      16.868  36.326  23.122  1.00  0.00     0.037 C 
ENDBRANCH  17  18
BRANCH  17  20
HETATM   20  C   LIG     1      17.622  36.744  20.727  1.00  0.00     0.268 C 
HETATM   21  C   LIG     1      18.654  36.757  19.603  1.00  0.00     0.037 C 
ENDBRANCH  17  20
ENDBRANCH  16  17
ENDBRANCH  15  16
ENDBRANCH  12  15
ENDBRANCH   3  11
BRANCH   1  22
HETATM   22  O   LIG     1      12.704  29.226  14.682  1.00  0.00    -0.334 OA
BRANCH  22  23
HETATM   23  C   LIG     1      12.953  28.153  13.774  1.00  0.00     0.177 C 
BRANCH  23  24
HETATM   24  C   LIG     1      11.687  27.777  12.994  1.00  0.00     0.026 C 
BRANCH  24  25
HETATM   25  C   LIG     1      11.572  26.259  12.798  1.00  0.00    -0.002 C 
HETATM   26  C   LIG     1      11.680  25.883  11.324  1.00  0.00     0.005 C 
ENDBRANCH  24  25
ENDBRANCH  23  24
ENDBRANCH  22  23
ENDBRANCH   1  22
TORSDOF 10
ENDMDL
MODEL 5
REMARK VINA RESULT:      -6.9      7.338     11.196
REMARK  10 active torsions:
REMARK  status: ('A' for Active; 'I' for Inactive)
REMARK    1  A    between atoms: C_2  and  C_3 
REMARK    2  A    between atoms: C_3  and  C_4 
REMARK    3  A    between atoms: C_4  and  O_5 
REMARK    4  A    between atoms: O_5  and  C_6 
REMARK    5  A    between atoms: C_8  and  C_9 
REMARK       I    between atoms: C_9  and  N_10 
REMARK    6  A    between atoms: N_10  and  C_11 
REMARK    7  A    between atoms: C_11  and  C_12 
REMARK    8  A    between atoms: C_12  and  N_13 
REMARK    9  A    between atoms: N_13  and  C_14 
REMARK   10  A    between atoms: N_13  and  C_16 
ROOT
HETATM    1  C   LIG     1      15.084  29.413  13.577  1.00  0.00     0.165 A 
HETATM    2  C   LIG     1      16.103  30.363  13.502  1.00  0.00     0.076 A 
HETATM    3  C   LIG     1      16.079  31.492  14.336  1.00  0.00     0.048 A 
HETATM    4  C   LIG     1      15.033  31.627  15.284  1.00  0.00     0.009 A 
HETATM    5  C   LIG     1      14.979  32.681  16.220  1.00  0.00     0.015 A 
HETATM    6  C   LIG     1      13.919  32.768  17.127  1.00  0.00     0.001 A 
HETATM    7  C   LIG     1      12.912  31.803  17.128  1.00  0.00     0.002 A 
HETATM    8  C   LIG     1      12.963  30.737  16.230  1.00  0.00     0.032 A 
HETATM    9  C   LIG     1      14.019  30.636  15.316  1.00  0.00     0.070 A 
HETATM   10  N   LIG     1      14.074  29.574  14.473  1.00  0.00    -0.224 NA
ENDROOT
BRANCH   3  11
HETATM   11  C   LIG     1      17.146  32.504  14.168  1.00  0.00     0.252 C 
HETATM   12  N   LIG     1      17.269  33.234  12.938  1.00  0.00    -0.355 N 
HETATM   13  H   LIG     1      16.728  32.901  12.108  1.00  0.00     0.162 HD
HETATM   14  O   LIG     1      17.982  32.680  15.096  1.00  0.00    -0.268 OA
BRANCH  12  15
HETATM   15  C   LIG     1      18.264  34.288  12.748  1.00  0.00     0.153 C 
BRANCH  15  16
HETATM   16  C   LIG     1      18.794  34.259  11.311  1.00  0.00     0.292 C 
BRANCH  16  17
HETATM   17  N   LIG     1      20.275  34.292  11.312  1.00  0.00     0.089 N 
BRANCH  17  18
HETATM   18  C   LIG     1      20.830  33.392  10.275  1.00  0.00     0.268 C 
HETATM   19  C   LIG     1      20.431  31.946  10.559  1.00  0.00     0.037 C 
ENDBRANCH  17  18
BRANCH  17  20
HETATM   20  C   LIG     1      20.815  33.960  12.652  1.00  0.00     0.268 C 
HETATM   21  C   LIG     1      22.044  34.813  12.953  1.00  0.00     0.037 C 
ENDBRANCH  17  20
ENDBRANCH  16  17
ENDBRANCH  15  16
ENDBRANCH  12  15
ENDBRANCH   3  11
BRANCH   1  22
HETATM   22  O   LIG     1      15.119  28.303  12.725  1.00  0.00    -0.334 OA
BRANCH  22  23
HETATM   23  C   LIG     1      15.884  27.126  12.987  1.00  0.00     0.177 C 
BRANCH  23  24
HETATM   24  C   LIG     1      16.501  26.563  11.701  1.00  0.00     0.026 C 
BRANCH  24  25
HETATM   25  C   LIG     1      15.472  26.491  10.564  1.00  0.00    -0.002 C 
HETATM   26  C   LIG     1      15.265  25.054  10.097  1.00  0.00     0.005 C 
ENDBRANCH  24  25
ENDBRANCH  23  24
ENDBRANCH  22  23
ENDBRANCH   1  22
TORSDOF 10
ENDMDL
