MODEL 1
REMARK VINA RESULT:      -8.4      0.000      0.000
REMARK  5 active torsions:
REMARK  status: ('A' for Active; 'I' for Inactive)
REMARK    1  A    between atoms: C_2  and  C_3 
REMARK    2  A    between atoms: C_3  and  C_4 
REMARK    3  A    between atoms: C_4  and  C_5 
REMARK    4  A    between atoms: N_7  and  C_8 
REMARK    5  A    between atoms: N_14  and  C_15 
ROOT
HETATM    1  C   LIG     1      15.431  34.337  20.355  1.00  0.00     0.174 A 
HETATM    2  C   LIG     1      16.251  35.425  19.726  1.00  0.00     0.257 A 
HETATM    3  N   LIG     1      16.929  36.217  20.700  1.00  0.00    -0.214 N 
HETATM    4  N   LIG     1      16.606  35.716  21.969  1.00  0.00    -0.214 N 
HETATM    5  C   LIG     1      15.698  34.628  21.802  1.00  0.00     0.257 A 
HETATM    6  O   LIG     1      15.147  34.024  22.761  1.00  0.00    -0.270 OA
HETATM    7  O   LIG     1      16.356  35.606  18.483  1.00  0.00    -0.270 OA
ENDROOT
BRANCH   3   8
HETATM    8  C   LIG     1      18.055  37.065  20.417  1.00  0.00     0.060 A 
HETATM    9  C   LIG     1      19.169  36.553  19.733  1.00  0.00     0.031 A 
HETATM   10  C   LIG     1      20.264  37.377  19.452  1.00  0.00     0.002 A 
HETATM   11  C   LIG     1      20.254  38.715  19.854  1.00  0.00     0.000 A 
HETATM   12  C   LIG     1      19.151  39.231  20.539  1.00  0.00     0.002 A 
HETATM   13  C   LIG     1      18.056  38.410  20.822  1.00  0.00     0.031 A 
ENDBRANCH   3   8
BRANCH   4  14
HETATM   14  C   LIG     1      16.878  36.384  23.213  1.00  0.00     0.060 A 
HETATM   15  C   LIG     1      17.447  35.677  24.286  1.00  0.00     0.031 A 
HETATM   16  C   LIG     1      17.721  36.328  25.492  1.00  0.00     0.002 A 
HETATM   17  C   LIG     1      17.430  37.687  25.637  1.00  0.00     0.000 A 
HETATM   18  C   LIG     1      16.862  38.396  24.576  1.00  0.00     0.002 A 
HETATM   19  C   LIG     1      16.585  37.749  23.368  1.00  0.00     0.031 A 
ENDBRANCH   4  14
BRANCH   1  20
HETATM   20  C   LIG     1      15.883  32.924  19.937  1.00  0.00     0.031 C 
BRANCH  20  21
HETATM   21  C   LIG     1      14.767  32.066  19.309  1.00  0.00     0.079 C 
BRANCH  21  22
HETATM   22  C   LIG     1      14.729  32.256  17.816  1.00  0.00     0.123 C 
HETATM   23  C   LIG     1      13.495  31.948  17.020  1.00  0.00     0.091 C 
HETATM   24  O   LIG     1      15.725  32.662  17.236  1.00  0.00    -0.298 OA
ENDBRANCH  21  22
ENDBRANCH  20  21
ENDBRANCH   1  20
TORSDOF 5
ENDMDL
MODEL 2
REMARK VINA RESULT:      -6.0      4.050      9.077
REMARK  5 active torsions:
REMARK  status: ('A' for Active; 'I' for Inactive)
REMARK    1  A    between atoms: C_2  and  C_3 
REMARK    2  A    between atoms: C_3  and  C_4 
REMARK    3  A    between atoms: C_4  and  C_5 
REMARK    4  A    between atoms: N_7  and  C_8 
REMARK    5  A    between atoms: N_14  and  C_15 
ROOT
HETATM    1  C   LIG     1      14.105  32.394  17.853  1.00  0.00     0.174 A 
HETATM    2  C   LIG     1      13.660  31.292  16.936  1.00  0.00     0.257 A 
HETATM    3  N   LIG     1      14.501  31.175  15.790  1.00  0.00    -0.214 N 
HETATM    4  N   LIG     1      15.503  32.151  15.885  1.00  0.00    -0.214 N 
HETATM    5  C   LIG     1      15.278  32.908  17.073  1.00  0.00     0.257 A 
HETATM    6  O   LIG     1      15.955  33.922  17.394  1.00  0.00    -0.270 OA
HETATM    7  O   LIG     1      12.677  30.536  17.161  1.00  0.00    -0.270 OA
ENDROOT
BRANCH   3   8
HETATM    8  C   LIG     1      14.568  30.012  14.946  1.00  0.00     0.060 A 
HETATM    9  C   LIG     1      15.808  29.423  14.654  1.00  0.00     0.031 A 
HETATM   10  C   LIG     1      15.876  28.289  13.838  1.00  0.00     0.002 A 
HETATM   11  C   LIG     1      14.706  27.739  13.307  1.00  0.00     0.000 A 
HETATM   12  C   LIG     1      13.468  28.323  13.588  1.00  0.00     0.002 A 
HETATM   13  C   LIG     1      13.397  29.456  14.404  1.00  0.00     0.031 A 
ENDBRANCH   3   8
BRANCH   4  14
HETATM   14  C   LIG     1      16.390  32.528  14.817  1.00  0.00     0.060 A 
HETATM   15  C   LIG     1      15.958  32.462  13.482  1.00  0.00     0.031 A 
HETATM   16  C   LIG     1      16.816  32.839  12.445  1.00  0.00     0.002 A 
HETATM   17  C   LIG     1      18.110  33.283  12.732  1.00  0.00     0.000 A 
HETATM   18  C   LIG     1      18.548  33.349  14.056  1.00  0.00     0.002 A 
HETATM   19  C   LIG     1      17.693  32.972  15.097  1.00  0.00     0.031 A 
ENDBRANCH   4  14
BRANCH   1  20
HETATM   20  C   LIG     1      14.496  31.888  19.256  1.00  0.00     0.031 C 
BRANCH  20  21
HETATM   21  C   LIG     1      15.661  32.664  19.901  1.00  0.00     0.079 C 
BRANCH  21  22
HETATM   22  C   LIG     1      15.140  33.791  20.753  1.00  0.00     0.123 C 
HETATM   23  C   LIG     1      15.641  35.195  20.585  1.00  0.00     0.091 C 
HETATM   24  O   LIG     1      14.297  33.558  21.607  1.00  0.00    -0.298 OA
ENDBRANCH  21  22
ENDBRANCH  20  21
ENDBRANCH   1  20
TORSDOF 5
ENDMDL
MODEL 3
REMARK VINA RESULT:      -5.8     14.973     16.839
REMARK  5 active torsions:
REMARK  status: ('A' for Active; 'I' for Inactive)
REMARK    1  A    between atoms: C_2  and  C_3 
REMARK    2  A    between atoms: C_3  and  C_4 
REMARK    3  A    between atoms: C_4  and  C_5 
REMARK    4  A    between atoms: N_7  and  C_8 
REMARK    5  A    between atoms: N_14  and  C_15 
ROOT
HETATM    1  C   LIG     1      25.549  22.062  23.637  1.00  0.00     0.174 A 
HETATM    2  C   LIG     1      26.488  22.696  22.653  1.00  0.00     0.257 A 
HETATM    3  N   LIG     1      26.048  22.525  21.306  1.00  0.00    -0.214 N 
HETATM    4  N   LIG     1      24.849  21.799  21.330  1.00  0.00    -0.214 N 
HETATM    5  C   LIG     1      24.545  21.482  22.687  1.00  0.00     0.257 A 
HETATM    6  O   LIG     1      23.576  20.754  23.035  1.00  0.00    -0.270 OA
HETATM    7  O   LIG     1      27.528  23.332  22.972  1.00  0.00    -0.270 OA
ENDROOT
BRANCH   3   8
HETATM    8  C   LIG     1      26.506  23.315  20.195  1.00  0.00     0.060 A 
HETATM    9  C   LIG     1      25.997  24.607  19.992  1.00  0.00     0.031 A 
HETATM   10  C   LIG     1      26.444  25.380  18.916  1.00  0.00     0.002 A 
HETATM   11  C   LIG     1      27.399  24.865  18.034  1.00  0.00     0.000 A 
HETATM   12  C   LIG     1      27.906  23.578  18.226  1.00  0.00     0.002 A 
HETATM   13  C   LIG     1      27.461  22.803  19.302  1.00  0.00     0.031 A 
ENDBRANCH   3   8
BRANCH   4  14
HETATM   14  C   LIG     1      24.222  21.204  20.180  1.00  0.00     0.060 A 
HETATM   15  C   LIG     1      23.261  21.920  19.448  1.00  0.00     0.031 A 
HETATM   16  C   LIG     1      22.660  21.346  18.324  1.00  0.00     0.002 A 
HETATM   17  C   LIG     1      23.012  20.055  17.924  1.00  0.00     0.000 A 
HETATM   18  C   LIG     1      23.965  19.335  18.647  1.00  0.00     0.002 A 
HETATM   19  C   LIG     1      24.568  19.905  19.773  1.00  0.00     0.031 A 
ENDBRANCH   4  14
BRANCH   1  20
HETATM   20  C   LIG     1      24.928  23.077  24.617  1.00  0.00     0.031 C 
BRANCH  20  21
HETATM   21  C   LIG     1      25.363  22.885  26.083  1.00  0.00     0.079 C 
BRANCH  21  22
HETATM   22  C   LIG     1      26.138  24.082  26.566  1.00  0.00     0.123 C 
HETATM   23  C   LIG     1      26.358  24.332  28.029  1.00  0.00     0.091 C 
HETATM   24  O   LIG     1      26.592  24.873  25.753  1.00  0.00    -0.298 OA
ENDBRANCH  21  22
ENDBRANCH  20  21
ENDBRANCH   1  20
TORSDOF 5
ENDMDL
MODEL 4
REMARK VINA RESULT:      -5.7     14.839     16.168
REMARK  5 active torsions:
REMARK  status: ('A' for Active; 'I' for Inactive)
REMARK    1  A    between atoms: C_2  and  C_3 
REMARK    2  A    between atoms: C_3  and  C_4 
REMARK    3  A    between atoms: C_4  and  C_5 
REMARK    4  A    between atoms: N_7  and  C_8 
REMARK    5  A    between atoms: N_14  and  C_15 
ROOT
HETATM    1  C   LIG     1      23.100  20.443  19.819  1.00  0.00     0.174 A 
HETATM    2  C   LIG     1      23.640  21.664  19.134  1.00  0.00     0.257 A 
HETATM    3  N   LIG     1      24.666  22.297  19.897  1.00  0.00    -0.214 N 
HETATM    4  N   LIG     1      24.848  21.561  21.076  1.00  0.00    -0.214 N 
HETATM    5  C   LIG     1      23.916  20.480  21.076  1.00  0.00     0.257 A 
HETATM    6  O   LIG     1      23.765  19.687  22.044  1.00  0.00    -0.270 OA
HETATM    7  O   LIG     1      23.259  22.071  18.003  1.00  0.00    -0.270 OA
ENDROOT
BRANCH   3   8
HETATM    8  C   LIG     1      25.616  23.234  19.361  1.00  0.00     0.060 A 
HETATM    9  C   LIG     1      25.629  24.562  19.815  1.00  0.00     0.031 A 
HETATM   10  C   LIG     1      26.555  25.475  19.300  1.00  0.00     0.002 A 
HETATM   11  C   LIG     1      27.472  25.067  18.328  1.00  0.00     0.000 A 
HETATM   12  C   LIG     1      27.464  23.748  17.868  1.00  0.00     0.002 A 
HETATM   13  C   LIG     1      26.538  22.833  18.380  1.00  0.00     0.031 A 
ENDBRANCH   3   8
BRANCH   4  14
HETATM   14  C   LIG     1      25.601  22.005  22.218  1.00  0.00     0.060 A 
HETATM   15  C   LIG     1      26.988  21.791  22.277  1.00  0.00     0.031 A 
HETATM   16  C   LIG     1      27.722  22.232  23.382  1.00  0.00     0.002 A 
HETATM   17  C   LIG     1      27.078  22.887  24.435  1.00  0.00     0.000 A 
HETATM   18  C   LIG     1      25.699  23.102  24.384  1.00  0.00     0.002 A 
HETATM   19  C   LIG     1      24.961  22.662  23.282  1.00  0.00     0.031 A 
ENDBRANCH   4  14
BRANCH   1  20
HETATM   20  C   LIG     1      23.314  19.151  19.005  1.00  0.00     0.031 C 
BRANCH  20  21
HETATM   21  C   LIG     1      22.010  18.419  18.631  1.00  0.00     0.079 C 
BRANCH  21  22
HETATM   22  C   LIG     1      21.675  18.643  17.180  1.00  0.00     0.123 C 
HETATM   23  C   LIG     1      20.328  18.284  16.625  1.00  0.00     0.091 C 
HETATM   24  O   LIG     1      22.518  19.119  16.435  1.00  0.00    -0.298 OA
ENDBRANCH  21  22
ENDBRANCH  20  21
ENDBRANCH   1  20
TORSDOF 5
ENDMDL
MODEL 5
REMARK VINA RESULT:      -5.6     14.845     16.601
REMARK  5 active torsions:
REMARK  status: ('A' for Active; 'I' for Inactive)
REMARK    1  A    between atoms: C_2  and  C_3 
REMARK    2  A    between atoms: C_3  and  C_4 
REMARK    3  A    between atoms: C_4  and  C_5 
REMARK    4  A    between atoms: N_7  and  C_8 
REMARK    5  A    between atoms: N_14  and  C_15 
ROOT
HETATM    1  C   LIG     1      27.499  23.671  24.441  1.00  0.00     0.174 A 
HETATM    2  C   LIG     1      28.109  23.939  23.097  1.00  0.00     0.257 A 
HETATM    3  N   LIG     1      27.231  23.584  22.030  1.00  0.00    -0.214 N 
HETATM    4  N   LIG     1      26.046  23.085  22.589  1.00  0.00    -0.214 N 
HETATM    5  C   LIG     1      26.186  23.092  24.009  1.00  0.00     0.257 A 
HETATM    6  O   LIG     1      25.326  22.615  24.798  1.00  0.00    -0.270 OA
HETATM    7  O   LIG     1      29.250  24.445  22.923  1.00  0.00    -0.270 OA
ENDROOT
BRANCH   3   8
HETATM    8  C   LIG     1      27.362  24.057  20.678  1.00  0.00     0.060 A 
HETATM    9  C   LIG     1      27.882  23.214  19.683  1.00  0.00     0.031 A 
HETATM   10  C   LIG     1      28.006  23.668  18.367  1.00  0.00     0.002 A 
HETATM   11  C   LIG     1      27.614  24.968  18.036  1.00  0.00     0.000 A 
HETATM   12  C   LIG     1      27.101  25.816  19.021  1.00  0.00     0.002 A 
HETATM   13  C   LIG     1      26.976  25.364  20.338  1.00  0.00     0.031 A 
ENDBRANCH   3   8
BRANCH   4  14
HETATM   14  C   LIG     1      25.020  22.389  21.861  1.00  0.00     0.060 A 
HETATM   15  C   LIG     1      25.236  21.075  21.414  1.00  0.00     0.031 A 
HETATM   16  C   LIG     1      24.235  20.394  20.715  1.00  0.00     0.002 A 
HETATM   17  C   LIG     1      23.012  21.020  20.456  1.00  0.00     0.000 A 
HETATM   18  C   LIG     1      22.790  22.327  20.895  1.00  0.00     0.002 A 
HETATM   19  C   LIG     1      23.789  23.011  21.593  1.00  0.00     0.031 A 
ENDBRANCH   4  14
BRANCH   1  20
HETATM   20  C   LIG     1      27.337  24.946  25.294  1.00  0.00     0.031 C 
BRANCH  20  21
HETATM   21  C   LIG     1      28.006  24.865  26.680  1.00  0.00     0.079 C 
BRANCH  21  22
HETATM   22  C   LIG     1      26.968  24.879  27.770  1.00  0.00     0.123 C 
HETATM   23  C   LIG     1      26.997  25.903  28.866  1.00  0.00     0.091 C 
HETATM   24  O   LIG     1      26.085  24.033  27.770  1.00  0.00    -0.298 OA
ENDBRANCH  21  22
ENDBRANCH  20  21
ENDBRANCH   1  20
TORSDOF 5
ENDMDL
MODEL 6
REMARK VINA RESULT:      -5.5     14.985     17.360
REMARK  5 active torsions:
REMARK  status: ('A' for Active; 'I' for Inactive)
REMARK    1  A    between atoms: C_2  and  C_3 
REMARK    2  A    between atoms: C_3  and  C_4 
REMARK    3  A    between atoms: C_4  and  C_5 
REMARK    4  A    between atoms: N_7  and  C_8 
REMARK    5  A    between atoms: N_14  and  C_15 
ROOT
HETATM    1  C   LIG     1      27.417  24.522  18.086  1.00  0.00     0.174 A 
HETATM    2  C   LIG     1      26.280  24.507  19.065  1.00  0.00     0.257 A 
HETATM    3  N   LIG     1      25.810  23.184  19.321  1.00  0.00    -0.214 N 
HETATM    4  N   LIG     1      26.578  22.295  18.556  1.00  0.00    -0.214 N 
HETATM    5  C   LIG     1      27.513  23.055  17.792  1.00  0.00     0.257 A 
HETATM    6  O   LIG     1      28.286  22.553  16.933  1.00  0.00    -0.270 OA
HETATM    7  O   LIG     1      25.810  25.534  19.623  1.00  0.00    -0.270 OA
ENDROOT
BRANCH   3   8
HETATM    8  C   LIG     1      25.014  22.809  20.458  1.00  0.00     0.060 A 
HETATM    9  C   LIG     1      23.664  22.463  20.292  1.00  0.00     0.031 A 
HETATM   10  C   LIG     1      22.889  22.094  21.395  1.00  0.00     0.002 A 
HETATM   11  C   LIG     1      23.457  22.070  22.672  1.00  0.00     0.000 A 
HETATM   12  C   LIG     1      24.799  22.418  22.848  1.00  0.00     0.002 A 
HETATM   13  C   LIG     1      25.576  22.788  21.746  1.00  0.00     0.031 A 
ENDBRANCH   3   8
BRANCH   4  14
HETATM   14  C   LIG     1      26.260  20.909  18.335  1.00  0.00     0.060 A 
HETATM   15  C   LIG     1      26.920  19.908  19.066  1.00  0.00     0.031 A 
HETATM   16  C   LIG     1      26.604  18.562  18.859  1.00  0.00     0.002 A 
HETATM   17  C   LIG     1      25.629  18.206  17.923  1.00  0.00     0.000 A 
HETATM   18  C   LIG     1      24.971  19.196  17.191  1.00  0.00     0.002 A 
HETATM   19  C   LIG     1      25.285  20.544  17.393  1.00  0.00     0.031 A 
ENDBRANCH   4  14
BRANCH   1  20
HETATM   20  C   LIG     1      28.718  25.097  18.683  1.00  0.00     0.031 C 
BRANCH  20  21
HETATM   21  C   LIG     1      29.493  26.024  17.726  1.00  0.00     0.079 C 
BRANCH  21  22
HETATM   22  C   LIG     1      29.428  27.451  18.202  1.00  0.00     0.123 C 
HETATM   23  C   LIG     1      30.669  28.214  18.557  1.00  0.00     0.091 C 
HETATM   24  O   LIG     1      28.341  27.999  18.311  1.00  0.00    -0.298 OA
ENDBRANCH  21  22
ENDBRANCH  20  21
ENDBRANCH   1  20
TORSDOF 5
ENDMDL
MODEL 7
REMARK VINA RESULT:      -5.5     15.054     17.061
REMARK  5 active torsions:
REMARK  status: ('A' for Active; 'I' for Inactive)
REMARK    1  A    between atoms: C_2  and  C_3 
REMARK    2  A    between atoms: C_3  and  C_4 
REMARK    3  A    between atoms: C_4  and  C_5 
REMARK    4  A    between atoms: N_7  and  C_8 
REMARK    5  A    between atoms: N_14  and  C_15 
ROOT
HETATM    1  C   LIG     1      24.906  22.225  23.713  1.00  0.00     0.174 A 
HETATM    2  C   LIG     1      23.924  21.680  22.717  1.00  0.00     0.257 A 
HETATM    3  N   LIG     1      24.348  21.897  21.372  1.00  0.00    -0.214 N 
HETATM    4  N   LIG     1      25.578  22.568  21.407  1.00  0.00    -0.214 N 
HETATM    5  C   LIG     1      25.919  22.806  22.772  1.00  0.00     0.257 A 
HETATM    6  O   LIG     1      26.924  23.473  23.135  1.00  0.00    -0.270 OA
HETATM    7  O   LIG     1      22.862  21.075  23.025  1.00  0.00    -0.270 OA
ENDROOT
BRANCH   3   8
HETATM    8  C   LIG     1      23.837  21.182  20.233  1.00  0.00     0.060 A 
HETATM    9  C   LIG     1      23.075  21.853  19.264  1.00  0.00     0.031 A 
HETATM   10  C   LIG     1      22.581  21.162  18.153  1.00  0.00     0.002 A 
HETATM   11  C   LIG     1      22.843  19.797  18.005  1.00  0.00     0.000 A 
HETATM   12  C   LIG     1      23.596  19.121  18.968  1.00  0.00     0.002 A 
HETATM   13  C   LIG     1      24.091  19.809  20.080  1.00  0.00     0.031 A 
ENDBRANCH   3   8
BRANCH   4  14
HETATM   14  C   LIG     1      26.210  23.191  20.275  1.00  0.00     0.060 A 
HETATM   15  C   LIG     1      25.851  24.494  19.892  1.00  0.00     0.031 A 
HETATM   16  C   LIG     1      26.473  25.103  18.799  1.00  0.00     0.002 A 
HETATM   17  C   LIG     1      27.455  24.417  18.079  1.00  0.00     0.000 A 
HETATM   18  C   LIG     1      27.816  23.121  18.451  1.00  0.00     0.002 A 
HETATM   19  C   LIG     1      27.196  22.507  19.544  1.00  0.00     0.031 A 
ENDBRANCH   4  14
BRANCH   1  20
HETATM   20  C   LIG     1      25.499  21.137  24.631  1.00  0.00     0.031 C 
BRANCH  20  21
HETATM   21  C   LIG     1      25.129  21.300  26.118  1.00  0.00     0.079 C 
BRANCH  21  22
HETATM   22  C   LIG     1      23.768  20.717  26.392  1.00  0.00     0.123 C 
HETATM   23  C   LIG     1      22.713  21.501  27.116  1.00  0.00     0.091 C 
HETATM   24  O   LIG     1      23.517  19.578  26.027  1.00  0.00    -0.298 OA
ENDBRANCH  21  22
ENDBRANCH  20  21
ENDBRANCH   1  20
TORSDOF 5
ENDMDL
MODEL 8
REMARK VINA RESULT:      -5.4     15.748     18.036
REMARK  5 active torsions:
REMARK  status: ('A' for Active; 'I' for Inactive)
REMARK    1  A    between atoms: C_2  and  C_3 
REMARK    2  A    between atoms: C_3  and  C_4 
REMARK    3  A    between atoms: C_4  and  C_5 
REMARK    4  A    between atoms: N_7  and  C_8 
REMARK    5  A    between atoms: N_14  and  C_15 
ROOT
HETATM    1  C   LIG     1      25.724  22.904  20.604  1.00  0.00     0.174 A 
HETATM    2  C   LIG     1      26.689  21.937  19.984  1.00  0.00     0.257 A 
HETATM    3  N   LIG     1      26.022  20.867  19.316  1.00  0.00    -0.214 N 
HETATM    4  N   LIG     1      24.641  21.061  19.456  1.00  0.00    -0.214 N 
HETATM    5  C   LIG     1      24.432  22.235  20.239  1.00  0.00     0.257 A 
HETATM    6  O   LIG     1      23.297  22.628  20.621  1.00  0.00    -0.270 OA
HETATM    7  O   LIG     1      27.943  22.065  20.018  1.00  0.00    -0.270 OA
ENDROOT
BRANCH   3   8
HETATM    8  C   LIG     1      26.634  20.016  18.331  1.00  0.00     0.060 A 
HETATM    9  C   LIG     1      26.735  20.441  16.997  1.00  0.00     0.031 A 
HETATM   10  C   LIG     1      27.334  19.618  16.038  1.00  0.00     0.002 A 
HETATM   11  C   LIG     1      27.833  18.366  16.405  1.00  0.00     0.000 A 
HETATM   12  C   LIG     1      27.732  17.933  17.730  1.00  0.00     0.002 A 
HETATM   13  C   LIG     1      27.133  18.753  18.691  1.00  0.00     0.031 A 
ENDBRANCH   3   8
BRANCH   4  14
HETATM   14  C   LIG     1      23.635  20.079  19.150  1.00  0.00     0.060 A 
HETATM   15  C   LIG     1      22.971  20.109  17.913  1.00  0.00     0.031 A 
HETATM   16  C   LIG     1      22.001  19.149  17.611  1.00  0.00     0.002 A 
HETATM   17  C   LIG     1      21.686  18.154  18.541  1.00  0.00     0.000 A 
HETATM   18  C   LIG     1      22.339  18.120  19.774  1.00  0.00     0.002 A 
HETATM   19  C   LIG     1      23.310  19.079  20.081  1.00  0.00     0.031 A 
ENDBRANCH   4  14
BRANCH   1  20
HETATM   20  C   LIG     1      25.843  24.329  20.027  1.00  0.00     0.031 C 
BRANCH  20  21
HETATM   21  C   LIG     1      25.964  24.377  18.492  1.00  0.00     0.079 C 
BRANCH  21  22
HETATM   22  C   LIG     1      27.266  25.011  18.082  1.00  0.00     0.123 C 
HETATM   23  C   LIG     1      27.831  26.187  18.823  1.00  0.00     0.091 C 
HETATM   24  O   LIG     1      27.875  24.565  17.121  1.00  0.00    -0.298 OA
ENDBRANCH  21  22
ENDBRANCH  20  21
ENDBRANCH   1  20
TORSDOF 5
ENDMDL
MODEL 9
REMARK VINA RESULT:      -5.4     15.004     17.086
REMARK  5 active torsions:
REMARK  status: ('A' for Active; 'I' for Inactive)
REMARK    1  A    between atoms: C_2  and  C_3 
REMARK    2  A    between atoms: C_3  and  C_4 
REMARK    3  A    between atoms: C_4  and  C_5 
REMARK    4  A    between atoms: N_7  and  C_8 
REMARK    5  A    between atoms: N_14  and  C_15 
ROOT
HETATM    1  C   LIG     1      25.140  22.373  23.740  1.00  0.00     0.174 A 
HETATM    2  C   LIG     1      24.110  21.811  22.804  1.00  0.00     0.257 A 
HETATM    3  N   LIG     1      24.461  22.015  21.436  1.00  0.00    -0.214 N 
HETATM    4  N   LIG     1      25.687  22.695  21.398  1.00  0.00    -0.214 N 
HETATM    5  C   LIG     1      26.097  22.950  22.740  1.00  0.00     0.257 A 
HETATM    6  O   LIG     1      27.116  23.627  23.043  1.00  0.00    -0.270 OA
HETATM    7  O   LIG     1      23.071  21.202  23.174  1.00  0.00    -0.270 OA
ENDROOT
BRANCH   3   8
HETATM    8  C   LIG     1      23.895  21.284  20.334  1.00  0.00     0.060 A 
HETATM    9  C   LIG     1      24.056  19.892  20.254  1.00  0.00     0.031 A 
HETATM   10  C   LIG     1      23.503  19.178  19.187  1.00  0.00     0.002 A 
HETATM   11  C   LIG     1      22.789  19.850  18.191  1.00  0.00     0.000 A 
HETATM   12  C   LIG     1      22.629  21.237  18.260  1.00  0.00     0.002 A 
HETATM   13  C   LIG     1      23.181  21.953  19.326  1.00  0.00     0.031 A 
ENDBRANCH   3   8
BRANCH   4  14
HETATM   14  C   LIG     1      26.254  23.308  20.227  1.00  0.00     0.060 A 
HETATM   15  C   LIG     1      27.154  22.594  19.420  1.00  0.00     0.031 A 
HETATM   16  C   LIG     1      27.697  23.186  18.276  1.00  0.00     0.002 A 
HETATM   17  C   LIG     1      27.348  24.495  17.931  1.00  0.00     0.000 A 
HETATM   18  C   LIG     1      26.456  25.213  18.730  1.00  0.00     0.002 A 
HETATM   19  C   LIG     1      25.911  24.624  19.876  1.00  0.00     0.031 A 
ENDBRANCH   4  14
BRANCH   1  20
HETATM   20  C   LIG     1      25.788  21.299  24.637  1.00  0.00     0.031 C 
BRANCH  20  21
HETATM   21  C   LIG     1      25.557  21.516  26.145  1.00  0.00     0.079 C 
BRANCH  21  22
HETATM   22  C   LIG     1      26.464  22.597  26.669  1.00  0.00     0.123 C 
HETATM   23  C   LIG     1      25.995  23.579  27.702  1.00  0.00     0.091 C 
HETATM   24  O   LIG     1      27.605  22.685  26.240  1.00  0.00    -0.298 OA
ENDBRANCH  21  22
ENDBRANCH  20  21
ENDBRANCH   1  20
TORSDOF 5
ENDMDL
