REMARK  2 active torsions:
REMARK  status: ('A' for Active; 'I' for Inactive)
REMARK    1  A    between atoms: C_9  and  O_10 
REMARK    2  A    between atoms: O_10  and  C_11 
ROOT
HETATM    1  C   LIG     1      -2.892  -0.291   0.573  1.00  0.00     0.006 C 
HETATM    2  C   LIG     1      -2.886   1.097   1.247  1.00  0.00     0.013 C 
HETATM    3  C   LIG     1      -4.071   1.851   0.649  1.00  0.00     0.079 C 
HETATM    4  C   LIG     1      -1.585  -1.156   0.658  1.00  0.00    -0.001 C 
HETATM    5  C   LIG     1      -0.897  -1.016   2.033  1.00  0.00     0.033 C 
HETATM    6  C   LIG     1       0.526  -1.470   2.054  1.00  0.00    -0.023 C 
HETATM    7  C   LIG     1       1.374  -1.082   1.087  1.00  0.00    -0.072 C 
HETATM    8  C   LIG     1       2.796  -0.722   1.474  1.00  0.00     0.067 C 
HETATM    9  C   LIG     1       3.090   0.780   1.180  1.00  0.00     0.136 C 
HETATM   10  C   LIG     1       1.811   1.589   0.863  1.00  0.00     0.034 C 
HETATM   11  C   LIG     1       0.955   0.981  -0.279  1.00  0.00     0.016 C 
HETATM   12  C   LIG     1       0.871  -0.580  -0.268  1.00  0.00    -0.017 C 
HETATM   13  C   LIG     1       1.839  -1.159  -1.351  1.00  0.00     0.020 C 
HETATM   14  C   LIG     1      -0.587  -1.129  -0.561  1.00  0.00     0.003 C 
HETATM   15  C   LIG     1      -1.217  -0.686  -1.916  1.00  0.00     0.007 C 
HETATM   16  C   LIG     1      -2.317   0.362  -1.811  1.00  0.00     0.018 C 
HETATM   17  C   LIG     1      -3.440  -0.045  -0.844  1.00  0.00     0.021 C 
HETATM   18  C   LIG     1      -4.258  -1.248  -1.358  1.00  0.00     0.024 C 
HETATM   19  C   LIG     1      -4.319   1.149  -0.634  1.00  0.00     0.135 C 
HETATM   20  O   LIG     1      -5.135   1.541  -1.456  1.00  0.00    -0.297 OA
ENDROOT
BRANCH   9  21
HETATM   21  O   LIG     1       4.013   0.927   0.101  1.00  0.00    -0.316 OA
BRANCH  21  22
HETATM   22  C   LIG     1       5.361   0.561   0.181  1.00  0.00     0.255 C 
HETATM   23  C   LIG     1       6.222   0.677  -1.030  1.00  0.00     0.126 C 
HETATM   24  O   LIG     1       5.843   0.098   1.250  1.00  0.00    -0.266 OA
ENDBRANCH  21  22
ENDBRANCH   9  21
TORSDOF 2
