REMARK  5 active torsions:
REMARK  status: ('A' for Active; 'I' for Inactive)
REMARK    1  A    between atoms: C_2  and  C_3 
REMARK    2  A    between atoms: C_3  and  C_4 
REMARK    3  A    between atoms: C_4  and  C_5 
REMARK    4  A    between atoms: N_7  and  C_8 
REMARK    5  A    between atoms: N_14  and  C_15 
ROOT
HETATM    1  C   LIG     1       2.110   0.535  -1.245  1.00  0.00     0.174 A 
HETATM    2  C   LIG     1       1.054   1.542  -0.895  1.00  0.00     0.257 A 
HETATM    3  N   LIG     1      -0.217   0.932  -0.676  1.00  0.00    -0.214 N 
HETATM    4  N   LIG     1      -0.074  -0.450  -0.863  1.00  0.00    -0.214 N 
HETATM    5  C   LIG     1       1.279  -0.713  -1.232  1.00  0.00     0.257 A 
HETATM    6  O   LIG     1       1.705  -1.853  -1.560  1.00  0.00    -0.270 OA
HETATM    7  O   LIG     1       1.264   2.779  -0.777  1.00  0.00    -0.270 OA
ENDROOT
BRANCH   3   8
HETATM    8  C   LIG     1      -1.308   1.555   0.024  1.00  0.00     0.060 A 
HETATM    9  C   LIG     1      -1.790   2.806  -0.392  1.00  0.00     0.031 A 
HETATM   10  C   LIG     1      -2.854   3.412   0.283  1.00  0.00     0.002 A 
HETATM   11  C   LIG     1      -3.441   2.774   1.379  1.00  0.00     0.000 A 
HETATM   12  C   LIG     1      -2.964   1.531   1.803  1.00  0.00     0.002 A 
HETATM   13  C   LIG     1      -1.900   0.923   1.130  1.00  0.00     0.031 A 
ENDBRANCH   3   8
BRANCH   4  14
HETATM   14  C   LIG     1      -1.162  -1.383  -0.984  1.00  0.00     0.060 A 
HETATM   15  C   LIG     1      -1.038  -2.684  -0.470  1.00  0.00     0.031 A 
HETATM   16  C   LIG     1      -2.099  -3.588  -0.578  1.00  0.00     0.002 A 
HETATM   17  C   LIG     1      -3.289  -3.201  -1.200  1.00  0.00     0.000 A 
HETATM   18  C   LIG     1      -3.419  -1.910  -1.716  1.00  0.00     0.002 A 
HETATM   19  C   LIG     1      -2.360  -1.003  -1.611  1.00  0.00     0.031 A 
ENDBRANCH   4  14
BRANCH   1  20
HETATM   20  C   LIG     1       3.265   0.494  -0.224  1.00  0.00     0.031 C 
BRANCH  20  21
HETATM   21  C   LIG     1       2.812   0.247   1.228  1.00  0.00     0.079 C 
BRANCH  21  22
HETATM   22  C   LIG     1       3.999   0.202   2.153  1.00  0.00     0.123 C 
HETATM   23  C   LIG     1       4.407  -1.067   2.841  1.00  0.00     0.091 C 
HETATM   24  O   LIG     1       4.641   1.222   2.357  1.00  0.00    -0.298 OA
ENDBRANCH  21  22
ENDBRANCH  20  21
ENDBRANCH   1  20
TORSDOF 5
