MODEL 1
REMARK VINA RESULT:      -5.5      0.000      0.000
REMARK  2 active torsions:
REMARK  status: ('A' for Active; 'I' for Inactive)
REMARK    1  A    between atoms: C_9  and  O_10 
REMARK    2  A    between atoms: O_10  and  C_11 
ROOT
HETATM    1  C   LIG     1      24.300  22.191  23.681  1.00  0.00     0.006 C 
HETATM    2  C   LIG     1      23.623  20.870  24.103  1.00  0.00     0.013 C 
HETATM    3  C   LIG     1      24.370  20.404  25.350  1.00  0.00     0.079 C 
HETATM    4  C   LIG     1      24.045  22.715  22.223  1.00  0.00    -0.001 C 
HETATM    5  C   LIG     1      22.589  22.466  21.774  1.00  0.00     0.033 C 
HETATM    6  C   LIG     1      22.379  22.561  20.298  1.00  0.00    -0.023 C 
HETATM    7  C   LIG     1      23.221  21.942  19.454  1.00  0.00    -0.072 C 
HETATM    8  C   LIG     1      22.644  21.263  18.226  1.00  0.00     0.067 C 
HETATM    9  C   LIG     1      22.887  19.724  18.275  1.00  0.00     0.136 C 
HETATM   10  C   LIG     1      23.368  19.238  19.662  1.00  0.00     0.034 C 
HETATM   11  C   LIG     1      24.619  19.991  20.188  1.00  0.00     0.016 C 
HETATM   12  C   LIG     1      24.628  21.525  19.886  1.00  0.00    -0.017 C 
HETATM   13  C   LIG     1      25.575  21.809  18.674  1.00  0.00     0.020 C 
HETATM   14  C   LIG     1      25.118  22.400  21.114  1.00  0.00     0.003 C 
HETATM   15  C   LIG     1      26.543  22.071  21.653  1.00  0.00     0.007 C 
HETATM   16  C   LIG     1      26.581  21.326  22.981  1.00  0.00     0.018 C 
HETATM   17  C   LIG     1      25.776  22.030  24.085  1.00  0.00     0.021 C 
HETATM   18  C   LIG     1      26.402  23.375  24.509  1.00  0.00     0.024 C 
HETATM   19  C   LIG     1      25.679  21.095  25.250  1.00  0.00     0.135 C 
HETATM   20  O   LIG     1      26.601  20.881  26.024  1.00  0.00    -0.297 OA
ENDROOT
BRANCH   9  21
HETATM   21  O   LIG     1      23.831  19.315  17.285  1.00  0.00    -0.316 OA
BRANCH  21  22
HETATM   22  C   LIG     1      23.470  18.729  16.068  1.00  0.00     0.255 C 
HETATM   23  C   LIG     1      22.027  18.550  15.743  1.00  0.00     0.126 C 
HETATM   24  O   LIG     1      24.349  18.314  15.264  1.00  0.00    -0.266 OA
ENDBRANCH  21  22
ENDBRANCH   9  21
TORSDOF 2
ENDMDL
MODEL 2
REMARK VINA RESULT:      -5.4     11.007     15.239
REMARK  2 active torsions:
REMARK  status: ('A' for Active; 'I' for Inactive)
REMARK    1  A    between atoms: C_9  and  O_10 
REMARK    2  A    between atoms: O_10  and  C_11 
ROOT
HETATM    1  C   LIG     1      27.980  30.471  35.480  1.00  0.00     0.006 C 
HETATM    2  C   LIG     1      26.694  30.943  34.770  1.00  0.00     0.013 C 
HETATM    3  C   LIG     1      25.722  31.323  35.884  1.00  0.00     0.079 C 
HETATM    4  C   LIG     1      29.016  29.637  34.648  1.00  0.00    -0.001 C 
HETATM    5  C   LIG     1      29.132  30.155  33.198  1.00  0.00     0.033 C 
HETATM    6  C   LIG     1      29.773  29.191  32.253  1.00  0.00    -0.023 C 
HETATM    7  C   LIG     1      29.392  27.903  32.240  1.00  0.00    -0.072 C 
HETATM    8  C   LIG     1      29.274  27.198  30.902  1.00  0.00     0.067 C 
HETATM    9  C   LIG     1      27.801  26.770  30.625  1.00  0.00     0.136 C 
HETATM   10  C   LIG     1      26.796  27.417  31.606  1.00  0.00     0.034 C 
HETATM   11  C   LIG     1      27.145  27.188  33.100  1.00  0.00     0.016 C 
HETATM   12  C   LIG     1      28.671  27.266  33.430  1.00  0.00    -0.017 C 
HETATM   13  C   LIG     1      29.244  25.819  33.583  1.00  0.00     0.020 C 
HETATM   14  C   LIG     1      28.981  28.066  34.763  1.00  0.00     0.003 C 
HETATM   15  C   LIG     1      28.302  27.518  36.054  1.00  0.00     0.007 C 
HETATM   16  C   LIG     1      27.135  28.345  36.578  1.00  0.00     0.018 C 
HETATM   17  C   LIG     1      27.498  29.823  36.790  1.00  0.00     0.021 C 
HETATM   18  C   LIG     1      28.511  30.026  37.936  1.00  0.00     0.024 C 
HETATM   19  C   LIG     1      26.229  30.572  37.059  1.00  0.00     0.135 C 
HETATM   20  O   LIG     1      25.637  30.538  38.128  1.00  0.00    -0.297 OA
ENDROOT
BRANCH   9  21
HETATM   21  O   LIG     1      27.654  25.351  30.678  1.00  0.00    -0.316 OA
BRANCH  21  22
HETATM   22  C   LIG     1      27.263  24.573  29.583  1.00  0.00     0.255 C 
HETATM   23  C   LIG     1      26.827  25.247  28.327  1.00  0.00     0.126 C 
HETATM   24  O   LIG     1      27.238  23.315  29.660  1.00  0.00    -0.266 OA
ENDBRANCH  21  22
ENDBRANCH   9  21
TORSDOF 2
ENDMDL
MODEL 3
REMARK VINA RESULT:      -5.3      3.743      6.707
REMARK  2 active torsions:
REMARK  status: ('A' for Active; 'I' for Inactive)
REMARK    1  A    between atoms: C_9  and  O_10 
REMARK    2  A    between atoms: O_10  and  C_11 
ROOT
HETATM    1  C   LIG     1      24.321  20.636  19.682  1.00  0.00     0.006 C 
HETATM    2  C   LIG     1      23.326  21.666  19.107  1.00  0.00     0.013 C 
HETATM    3  C   LIG     1      22.557  20.931  18.012  1.00  0.00     0.079 C 
HETATM    4  C   LIG     1      25.526  21.172  20.532  1.00  0.00    -0.001 C 
HETATM    5  C   LIG     1      25.110  22.361  21.425  1.00  0.00     0.033 C 
HETATM    6  C   LIG     1      26.256  23.167  21.944  1.00  0.00    -0.023 C 
HETATM    7  C   LIG     1      27.241  23.552  21.116  1.00  0.00    -0.072 C 
HETATM    8  C   LIG     1      27.818  24.946  21.278  1.00  0.00     0.067 C 
HETATM    9  C   LIG     1      27.547  25.811  20.010  1.00  0.00     0.136 C 
HETATM   10  C   LIG     1      26.523  25.162  19.050  1.00  0.00     0.034 C 
HETATM   11  C   LIG     1      26.888  23.712  18.637  1.00  0.00     0.016 C 
HETATM   12  C   LIG     1      27.495  22.842  19.785  1.00  0.00    -0.017 C 
HETATM   13  C   LIG     1      29.046  22.758  19.607  1.00  0.00     0.020 C 
HETATM   14  C   LIG     1      26.919  21.366  19.821  1.00  0.00     0.003 C 
HETATM   15  C   LIG     1      27.112  20.532  18.518  1.00  0.00     0.007 C 
HETATM   16  C   LIG     1      25.854  20.327  17.684  1.00  0.00     0.018 C 
HETATM   17  C   LIG     1      24.691  19.732  18.493  1.00  0.00     0.021 C 
HETATM   18  C   LIG     1      24.961  18.280  18.940  1.00  0.00     0.024 C 
HETATM   19  C   LIG     1      23.458  19.810  17.647  1.00  0.00     0.135 C 
HETATM   20  O   LIG     1      23.228  19.054  16.714  1.00  0.00    -0.297 OA
ENDROOT
BRANCH   9  21
HETATM   21  O   LIG     1      28.754  26.075  19.294  1.00  0.00    -0.316 OA
BRANCH  21  22
HETATM   22  C   LIG     1      28.821  26.908  18.172  1.00  0.00     0.255 C 
HETATM   23  C   LIG     1      29.342  26.361  16.887  1.00  0.00     0.126 C 
HETATM   24  O   LIG     1      28.485  28.121  18.245  1.00  0.00    -0.266 OA
ENDBRANCH  21  22
ENDBRANCH   9  21
TORSDOF 2
ENDMDL
MODEL 4
REMARK VINA RESULT:      -5.3     11.366     16.675
REMARK  2 active torsions:
REMARK  status: ('A' for Active; 'I' for Inactive)
REMARK    1  A    between atoms: C_9  and  O_10 
REMARK    2  A    between atoms: O_10  and  C_11 
ROOT
HETATM    1  C   LIG     1      29.117  26.835  31.227  1.00  0.00     0.006 C 
HETATM    2  C   LIG     1      30.432  26.388  31.898  1.00  0.00     0.013 C 
HETATM    3  C   LIG     1      30.531  24.885  31.654  1.00  0.00     0.079 C 
HETATM    4  C   LIG     1      28.518  28.227  31.635  1.00  0.00    -0.001 C 
HETATM    5  C   LIG     1      29.623  29.283  31.847  1.00  0.00     0.033 C 
HETATM    6  C   LIG     1      29.180  30.488  32.612  1.00  0.00    -0.023 C 
HETATM    7  C   LIG     1      28.472  30.347  33.745  1.00  0.00    -0.072 C 
HETATM    8  C   LIG     1      28.777  31.272  34.908  1.00  0.00     0.067 C 
HETATM    9  C   LIG     1      29.316  30.470  36.131  1.00  0.00     0.136 C 
HETATM   10  C   LIG     1      29.690  29.013  35.773  1.00  0.00     0.034 C 
HETATM   11  C   LIG     1      28.544  28.226  35.084  1.00  0.00     0.016 C 
HETATM   12  C   LIG     1      27.708  29.059  34.059  1.00  0.00    -0.017 C 
HETATM   13  C   LIG     1      26.355  29.486  34.718  1.00  0.00     0.020 C 
HETATM   14  C   LIG     1      27.382  28.263  32.727  1.00  0.00     0.003 C 
HETATM   15  C   LIG     1      26.604  26.925  32.911  1.00  0.00     0.007 C 
HETATM   16  C   LIG     1      27.429  25.660  32.715  1.00  0.00     0.018 C 
HETATM   17  C   LIG     1      28.168  25.631  31.368  1.00  0.00     0.021 C 
HETATM   18  C   LIG     1      27.206  25.517  30.167  1.00  0.00     0.024 C 
HETATM   19  C   LIG     1      29.127  24.481  31.396  1.00  0.00     0.135 C 
HETATM   20  O   LIG     1      28.787  23.314  31.263  1.00  0.00    -0.297 OA
ENDROOT
BRANCH   9  21
HETATM   21  O   LIG     1      28.372  30.459  37.202  1.00  0.00    -0.316 OA
BRANCH  21  22
HETATM   22  C   LIG     1      27.777  31.614  37.720  1.00  0.00     0.255 C 
HETATM   23  C   LIG     1      26.291  31.723  37.742  1.00  0.00     0.126 C 
HETATM   24  O   LIG     1      28.482  32.576  38.129  1.00  0.00    -0.266 OA
ENDBRANCH  21  22
ENDBRANCH   9  21
TORSDOF 2
ENDMDL
MODEL 5
REMARK VINA RESULT:      -5.2      1.264      6.983
REMARK  2 active torsions:
REMARK  status: ('A' for Active; 'I' for Inactive)
REMARK    1  A    between atoms: C_9  and  O_10 
REMARK    2  A    between atoms: O_10  and  C_11 
ROOT
HETATM    1  C   LIG     1      23.704  20.878  18.472  1.00  0.00     0.006 C 
HETATM    2  C   LIG     1      25.191  21.119  18.136  1.00  0.00     0.013 C 
HETATM    3  C   LIG     1      25.513  20.167  16.987  1.00  0.00     0.079 C 
HETATM    4  C   LIG     1      23.170  21.393  19.855  1.00  0.00    -0.001 C 
HETATM    5  C   LIG     1      23.793  22.753  20.237  1.00  0.00     0.033 C 
HETATM    6  C   LIG     1      23.654  23.106  21.681  1.00  0.00    -0.023 C 
HETATM    7  C   LIG     1      23.942  22.199  22.630  1.00  0.00    -0.072 C 
HETATM    8  C   LIG     1      24.667  22.665  23.879  1.00  0.00     0.067 C 
HETATM    9  C   LIG     1      26.070  21.996  23.990  1.00  0.00     0.136 C 
HETATM   10  C   LIG     1      26.497  21.282  22.688  1.00  0.00     0.034 C 
HETATM   11  C   LIG     1      25.458  20.253  22.170  1.00  0.00     0.016 C 
HETATM   12  C   LIG     1      23.968  20.700  22.326  1.00  0.00    -0.017 C 
HETATM   13  C   LIG     1      23.336  19.979  23.561  1.00  0.00     0.020 C 
HETATM   14  C   LIG     1      23.082  20.373  21.053  1.00  0.00     0.003 C 
HETATM   15  C   LIG     1      23.026  18.873  20.634  1.00  0.00     0.007 C 
HETATM   16  C   LIG     1      23.824  18.514  19.387  1.00  0.00     0.018 C 
HETATM   17  C   LIG     1      23.463  19.388  18.175  1.00  0.00     0.021 C 
HETATM   18  C   LIG     1      22.030  19.130  17.665  1.00  0.00     0.024 C 
HETATM   19  C   LIG     1      24.470  19.118  17.100  1.00  0.00     0.135 C 
HETATM   20  O   LIG     1      24.466  18.111  16.407  1.00  0.00    -0.297 OA
ENDROOT
BRANCH   9  21
HETATM   21  O   LIG     1      26.116  21.063  25.070  1.00  0.00    -0.316 OA
BRANCH  21  22
HETATM   22  C   LIG     1      25.757  21.382  26.384  1.00  0.00     0.255 C 
HETATM   23  C   LIG     1      24.634  20.648  27.032  1.00  0.00     0.126 C 
HETATM   24  O   LIG     1      26.344  22.307  27.008  1.00  0.00    -0.266 OA
ENDBRANCH  21  22
ENDBRANCH   9  21
TORSDOF 2
ENDMDL
MODEL 6
REMARK VINA RESULT:      -5.1      9.996     15.452
REMARK  2 active torsions:
REMARK  status: ('A' for Active; 'I' for Inactive)
REMARK    1  A    between atoms: C_9  and  O_10 
REMARK    2  A    between atoms: O_10  and  C_11 
ROOT
HETATM    1  C   LIG     1      29.249  25.628  30.482  1.00  0.00     0.006 C 
HETATM    2  C   LIG     1      28.075  24.706  30.874  1.00  0.00     0.013 C 
HETATM    3  C   LIG     1      27.466  24.232  29.557  1.00  0.00     0.079 C 
HETATM    4  C   LIG     1      29.825  26.592  31.579  1.00  0.00    -0.001 C 
HETATM    5  C   LIG     1      29.857  25.921  32.969  1.00  0.00     0.033 C 
HETATM    6  C   LIG     1      30.004  26.877  34.107  1.00  0.00    -0.023 C 
HETATM    7  C   LIG     1      29.244  27.984  34.161  1.00  0.00    -0.072 C 
HETATM    8  C   LIG     1      28.697  28.420  35.508  1.00  0.00     0.067 C 
HETATM    9  C   LIG     1      27.139  28.359  35.521  1.00  0.00     0.136 C 
HETATM   10  C   LIG     1      26.559  27.603  34.304  1.00  0.00     0.034 C 
HETATM   11  C   LIG     1      27.059  28.142  32.938  1.00  0.00     0.016 C 
HETATM   12  C   LIG     1      28.567  28.555  32.914  1.00  0.00    -0.017 C 
HETATM   13  C   LIG     1      28.678  30.112  33.013  1.00  0.00     0.020 C 
HETATM   14  C   LIG     1      29.323  28.086  31.603  1.00  0.00     0.003 C 
HETATM   15  C   LIG     1      28.727  28.600  30.257  1.00  0.00     0.007 C 
HETATM   16  C   LIG     1      27.977  27.559  29.437  1.00  0.00     0.018 C 
HETATM   17  C   LIG     1      28.811  26.296  29.167  1.00  0.00     0.021 C 
HETATM   18  C   LIG     1      30.010  26.566  28.235  1.00  0.00     0.024 C 
HETATM   19  C   LIG     1      27.899  25.262  28.582  1.00  0.00     0.135 C 
HETATM   20  O   LIG     1      27.509  25.282  27.423  1.00  0.00    -0.297 OA
ENDROOT
BRANCH   9  21
HETATM   21  O   LIG     1      26.569  29.667  35.570  1.00  0.00    -0.316 OA
BRANCH  21  22
HETATM   22  C   LIG     1      26.348  30.370  36.760  1.00  0.00     0.255 C 
HETATM   23  C   LIG     1      27.234  31.518  37.105  1.00  0.00     0.126 C 
HETATM   24  O   LIG     1      25.438  30.020  37.558  1.00  0.00    -0.266 OA
ENDBRANCH  21  22
ENDBRANCH   9  21
TORSDOF 2
ENDMDL
MODEL 7
REMARK VINA RESULT:      -5.0      3.250      6.033
REMARK  2 active torsions:
REMARK  status: ('A' for Active; 'I' for Inactive)
REMARK    1  A    between atoms: C_9  and  O_10 
REMARK    2  A    between atoms: O_10  and  C_11 
ROOT
HETATM    1  C   LIG     1      26.795  24.257  18.153  1.00  0.00     0.006 C 
HETATM    2  C   LIG     1      26.185  25.432  18.947  1.00  0.00     0.013 C 
HETATM    3  C   LIG     1      27.282  26.491  19.024  1.00  0.00     0.079 C 
HETATM    4  C   LIG     1      26.083  22.861  18.243  1.00  0.00    -0.001 C 
HETATM    5  C   LIG     1      24.546  23.005  18.267  1.00  0.00     0.033 C 
HETATM    6  C   LIG     1      23.826  21.788  18.749  1.00  0.00    -0.023 C 
HETATM    7  C   LIG     1      24.235  21.157  19.862  1.00  0.00    -0.072 C 
HETATM    8  C   LIG     1      23.184  20.622  20.817  1.00  0.00     0.067 C 
HETATM    9  C   LIG     1      23.269  21.340  22.197  1.00  0.00     0.136 C 
HETATM   10  C   LIG     1      24.168  22.598  22.163  1.00  0.00     0.034 C 
HETATM   11  C   LIG     1      25.594  22.330  21.615  1.00  0.00     0.016 C 
HETATM   12  C   LIG     1      25.652  21.334  20.411  1.00  0.00    -0.017 C 
HETATM   13  C   LIG     1      26.117  19.931  20.921  1.00  0.00     0.020 C 
HETATM   14  C   LIG     1      26.642  21.799  19.263  1.00  0.00     0.003 C 
HETATM   15  C   LIG     1      28.123  22.018  19.695  1.00  0.00     0.007 C 
HETATM   16  C   LIG     1      28.564  23.473  19.795  1.00  0.00     0.018 C 
HETATM   17  C   LIG     1      28.292  24.269  18.509  1.00  0.00     0.021 C 
HETATM   18  C   LIG     1      29.165  23.800  17.326  1.00  0.00     0.024 C 
HETATM   19  C   LIG     1      28.529  25.717  18.808  1.00  0.00     0.135 C 
HETATM   20  O   LIG     1      29.642  26.213  18.909  1.00  0.00    -0.297 OA
ENDROOT
BRANCH   9  21
HETATM   21  O   LIG     1      23.741  20.458  23.215  1.00  0.00    -0.316 OA
BRANCH  21  22
HETATM   22  C   LIG     1      23.037  20.189  24.394  1.00  0.00     0.255 C 
HETATM   23  C   LIG     1      22.067  19.058  24.423  1.00  0.00     0.126 C 
HETATM   24  O   LIG     1      23.184  20.915  25.414  1.00  0.00    -0.266 OA
ENDBRANCH  21  22
ENDBRANCH   9  21
TORSDOF 2
ENDMDL
MODEL 8
REMARK VINA RESULT:      -4.8      2.739      4.910
REMARK  2 active torsions:
REMARK  status: ('A' for Active; 'I' for Inactive)
REMARK    1  A    between atoms: C_9  and  O_10 
REMARK    2  A    between atoms: O_10  and  C_11 
ROOT
HETATM    1  C   LIG     1      25.924  22.478  28.071  1.00  0.00     0.006 C 
HETATM    2  C   LIG     1      26.728  21.177  28.280  1.00  0.00     0.013 C 
HETATM    3  C   LIG     1      28.057  21.608  28.895  1.00  0.00     0.079 C 
HETATM    4  C   LIG     1      24.695  22.435  27.096  1.00  0.00    -0.001 C 
HETATM    5  C   LIG     1      23.916  21.108  27.218  1.00  0.00     0.033 C 
HETATM    6  C   LIG     1      23.003  20.826  26.070  1.00  0.00    -0.023 C 
HETATM    7  C   LIG     1      23.437  20.976  24.808  1.00  0.00    -0.072 C 
HETATM    8  C   LIG     1      23.011  19.955  23.770  1.00  0.00     0.067 C 
HETATM    9  C   LIG     1      24.241  19.175  23.217  1.00  0.00     0.136 C 
HETATM   10  C   LIG     1      25.521  19.407  24.053  1.00  0.00     0.034 C 
HETATM   11  C   LIG     1      25.881  20.904  24.242  1.00  0.00     0.016 C 
HETATM   12  C   LIG     1      24.653  21.843  24.475  1.00  0.00    -0.017 C 
HETATM   13  C   LIG     1      24.319  22.598  23.147  1.00  0.00     0.020 C 
HETATM   14  C   LIG     1      24.899  22.921  25.611  1.00  0.00     0.003 C 
HETATM   15  C   LIG     1      26.115  23.870  25.392  1.00  0.00     0.007 C 
HETATM   16  C   LIG     1      27.326  23.592  26.273  1.00  0.00     0.018 C 
HETATM   17  C   LIG     1      26.980  23.556  27.770  1.00  0.00     0.021 C 
HETATM   18  C   LIG     1      26.559  24.937  28.314  1.00  0.00     0.024 C 
HETATM   19  C   LIG     1      28.176  23.034  28.504  1.00  0.00     0.135 C 
HETATM   20  O   LIG     1      29.177  23.700  28.726  1.00  0.00    -0.297 OA
ENDROOT
BRANCH   9  21
HETATM   21  O   LIG     1      24.506  19.518  21.857  1.00  0.00    -0.316 OA
BRANCH  21  22
HETATM   22  C   LIG     1      23.527  19.526  20.857  1.00  0.00     0.255 C 
HETATM   23  C   LIG     1      23.266  20.784  20.101  1.00  0.00     0.126 C 
HETATM   24  O   LIG     1      22.838  18.498  20.618  1.00  0.00    -0.266 OA
ENDBRANCH  21  22
ENDBRANCH   9  21
TORSDOF 2
ENDMDL
MODEL 9
REMARK VINA RESULT:      -4.8      2.074      7.130
REMARK  2 active torsions:
REMARK  status: ('A' for Active; 'I' for Inactive)
REMARK    1  A    between atoms: C_9  and  O_10 
REMARK    2  A    between atoms: O_10  and  C_11 
ROOT
HETATM    1  C   LIG     1      24.833  21.301  17.800  1.00  0.00     0.006 C 
HETATM    2  C   LIG     1      26.170  20.626  17.430  1.00  0.00     0.013 C 
HETATM    3  C   LIG     1      25.799  19.251  16.882  1.00  0.00     0.079 C 
HETATM    4  C   LIG     1      24.877  22.546  18.756  1.00  0.00    -0.001 C 
HETATM    5  C   LIG     1      26.093  23.450  18.460  1.00  0.00     0.033 C 
HETATM    6  C   LIG     1      26.426  24.406  19.558  1.00  0.00    -0.023 C 
HETATM    7  C   LIG     1      26.483  23.981  20.831  1.00  0.00    -0.072 C 
HETATM    8  C   LIG     1      27.581  24.524  21.726  1.00  0.00     0.067 C 
HETATM    9  C   LIG     1      28.544  23.386  22.180  1.00  0.00     0.136 C 
HETATM   10  C   LIG     1      28.336  22.075  21.387  1.00  0.00     0.034 C 
HETATM   11  C   LIG     1      26.871  21.566  21.395  1.00  0.00     0.016 C 
HETATM   12  C   LIG     1      25.791  22.691  21.279  1.00  0.00    -0.017 C 
HETATM   13  C   LIG     1      25.182  22.973  22.691  1.00  0.00     0.020 C 
HETATM   14  C   LIG     1      24.607  22.321  20.292  1.00  0.00     0.003 C 
HETATM   15  C   LIG     1      23.820  21.021  20.638  1.00  0.00     0.007 C 
HETATM   16  C   LIG     1      24.103  19.829  19.734  1.00  0.00     0.018 C 
HETATM   17  C   LIG     1      23.913  20.150  18.243  1.00  0.00     0.021 C 
HETATM   18  C   LIG     1      22.438  20.424  17.879  1.00  0.00     0.024 C 
HETATM   19  C   LIG     1      24.454  18.999  17.453  1.00  0.00     0.135 C 
HETATM   20  O   LIG     1      23.868  17.933  17.324  1.00  0.00    -0.297 OA
ENDROOT
BRANCH   9  21
HETATM   21  O   LIG     1      28.405  23.113  23.574  1.00  0.00    -0.316 OA
BRANCH  21  22
HETATM   22  C   LIG     1      28.422  24.104  24.562  1.00  0.00     0.255 C 
HETATM   23  C   LIG     1      27.224  24.290  25.430  1.00  0.00     0.126 C 
HETATM   24  O   LIG     1      29.418  24.865  24.698  1.00  0.00    -0.266 OA
ENDBRANCH  21  22
ENDBRANCH   9  21
TORSDOF 2
ENDMDL
MODEL 10
REMARK VINA RESULT:      -4.8      8.259     13.827
REMARK  2 active torsions:
REMARK  status: ('A' for Active; 'I' for Inactive)
REMARK    1  A    between atoms: C_9  and  O_10 
REMARK    2  A    between atoms: O_10  and  C_11 
ROOT
HETATM    1  C   LIG     1      28.163  24.189  28.971  1.00  0.00     0.006 C 
HETATM    2  C   LIG     1      26.621  24.142  28.950  1.00  0.00     0.013 C 
HETATM    3  C   LIG     1      26.227  24.172  27.475  1.00  0.00     0.079 C 
HETATM    4  C   LIG     1      28.869  24.579  30.317  1.00  0.00    -0.001 C 
HETATM    5  C   LIG     1      28.141  23.977  31.538  1.00  0.00     0.033 C 
HETATM    6  C   LIG     1      28.498  24.617  32.840  1.00  0.00    -0.023 C 
HETATM    7  C   LIG     1      28.526  25.955  32.951  1.00  0.00    -0.072 C 
HETATM    8  C   LIG     1      27.991  26.587  34.222  1.00  0.00     0.067 C 
HETATM    9  C   LIG     1      26.744  27.472  33.922  1.00  0.00     0.136 C 
HETATM   10  C   LIG     1      26.185  27.255  32.496  1.00  0.00     0.034 C 
HETATM   11  C   LIG     1      27.245  27.431  31.377  1.00  0.00     0.016 C 
HETATM   12  C   LIG     1      28.658  26.859  31.723  1.00  0.00    -0.017 C 
HETATM   13  C   LIG     1      29.608  28.034  32.128  1.00  0.00     0.020 C 
HETATM   14  C   LIG     1      29.326  26.073  30.519  1.00  0.00     0.003 C 
HETATM   15  C   LIG     1      29.515  26.886  29.203  1.00  0.00     0.007 C 
HETATM   16  C   LIG     1      28.556  26.531  28.075  1.00  0.00     0.018 C 
HETATM   17  C   LIG     1      28.554  25.030  27.743  1.00  0.00     0.021 C 
HETATM   18  C   LIG     1      29.887  24.557  27.127  1.00  0.00     0.024 C 
HETATM   19  C   LIG     1      27.412  24.768  26.811  1.00  0.00     0.135 C 
HETATM   20  O   LIG     1      27.429  25.057  25.622  1.00  0.00    -0.297 OA
ENDROOT
BRANCH   9  21
HETATM   21  O   LIG     1      27.035  28.858  34.101  1.00  0.00    -0.316 OA
BRANCH  21  22
HETATM   22  C   LIG     1      26.699  29.576  35.253  1.00  0.00     0.255 C 
HETATM   23  C   LIG     1      26.551  31.057  35.173  1.00  0.00     0.126 C 
HETATM   24  O   LIG     1      26.560  28.992  36.362  1.00  0.00    -0.266 OA
ENDBRANCH  21  22
ENDBRANCH   9  21
TORSDOF 2
ENDMDL
MODEL 11
REMARK VINA RESULT:      -4.6      2.736      6.919
REMARK  2 active torsions:
REMARK  status: ('A' for Active; 'I' for Inactive)
REMARK    1  A    between atoms: C_9  and  O_10 
REMARK    2  A    between atoms: O_10  and  C_11 
ROOT
HETATM    1  C   LIG     1      25.156  22.719  19.287  1.00  0.00     0.006 C 
HETATM    2  C   LIG     1      25.408  24.168  19.751  1.00  0.00     0.013 C 
HETATM    3  C   LIG     1      26.455  24.732  18.794  1.00  0.00     0.079 C 
HETATM    4  C   LIG     1      24.448  21.738  20.287  1.00  0.00    -0.001 C 
HETATM    5  C   LIG     1      23.339  22.449  21.094  1.00  0.00     0.033 C 
HETATM    6  C   LIG     1      22.907  21.712  22.319  1.00  0.00    -0.023 C 
HETATM    7  C   LIG     1      23.822  21.208  23.163  1.00  0.00    -0.072 C 
HETATM    8  C   LIG     1      23.562  21.306  24.655  1.00  0.00     0.067 C 
HETATM    9  C   LIG     1      24.633  22.200  25.350  1.00  0.00     0.136 C 
HETATM   10  C   LIG     1      25.494  22.995  24.341  1.00  0.00     0.034 C 
HETATM   11  C   LIG     1      26.162  22.110  23.257  1.00  0.00     0.016 C 
HETATM   12  C   LIG     1      25.264  20.948  22.722  1.00  0.00    -0.017 C 
HETATM   13  C   LIG     1      25.704  19.603  23.390  1.00  0.00     0.020 C 
HETATM   14  C   LIG     1      25.343  20.770  21.149  1.00  0.00     0.003 C 
HETATM   15  C   LIG     1      26.765  20.500  20.569  1.00  0.00     0.007 C 
HETATM   16  C   LIG     1      27.402  21.672  19.835  1.00  0.00     0.018 C 
HETATM   17  C   LIG     1      26.505  22.239  18.723  1.00  0.00     0.021 C 
HETATM   18  C   LIG     1      26.318  21.253  17.551  1.00  0.00     0.024 C 
HETATM   19  C   LIG     1      27.118  23.521  18.250  1.00  0.00     0.135 C 
HETATM   20  O   LIG     1      28.098  23.574  17.521  1.00  0.00    -0.297 OA
ENDROOT
BRANCH   9  21
HETATM   21  O   LIG     1      25.492  21.426  26.186  1.00  0.00    -0.316 OA
BRANCH  21  22
HETATM   22  C   LIG     1      26.454  21.984  27.035  1.00  0.00     0.255 C 
HETATM   23  C   LIG     1      26.046  23.040  28.005  1.00  0.00     0.126 C 
HETATM   24  O   LIG     1      27.663  21.635  26.962  1.00  0.00    -0.266 OA
ENDBRANCH  21  22
ENDBRANCH   9  21
TORSDOF 2
ENDMDL
MODEL 12
REMARK VINA RESULT:      -4.6      8.032     13.651
REMARK  2 active torsions:
REMARK  status: ('A' for Active; 'I' for Inactive)
REMARK    1  A    between atoms: C_9  and  O_10 
REMARK    2  A    between atoms: O_10  and  C_11 
ROOT
HETATM    1  C   LIG     1      29.157  25.865  27.519  1.00  0.00     0.006 C 
HETATM    2  C   LIG     1      30.557  25.343  27.904  1.00  0.00     0.013 C 
HETATM    3  C   LIG     1      30.682  23.971  27.246  1.00  0.00     0.079 C 
HETATM    4  C   LIG     1      28.559  27.052  28.355  1.00  0.00    -0.001 C 
HETATM    5  C   LIG     1      29.642  28.083  28.736  1.00  0.00     0.033 C 
HETATM    6  C   LIG     1      29.247  29.004  29.844  1.00  0.00    -0.023 C 
HETATM    7  C   LIG     1      28.681  28.515  30.960  1.00  0.00    -0.072 C 
HETATM    8  C   LIG     1      29.086  29.110  32.296  1.00  0.00     0.067 C 
HETATM    9  C   LIG     1      29.793  28.046  33.189  1.00  0.00     0.136 C 
HETATM   10  C   LIG     1      30.175  26.768  32.407  1.00  0.00     0.034 C 
HETATM   11  C   LIG     1      28.986  26.121  31.648  1.00  0.00     0.016 C 
HETATM   12  C   LIG     1      28.007  27.142  30.983  1.00  0.00    -0.017 C 
HETATM   13  C   LIG     1      26.726  27.284  31.868  1.00  0.00     0.020 C 
HETATM   14  C   LIG     1      27.557  26.716  29.524  1.00  0.00     0.003 C 
HETATM   15  C   LIG     1      26.856  25.329  29.410  1.00  0.00     0.007 C 
HETATM   16  C   LIG     1      27.699  24.222  28.790  1.00  0.00     0.018 C 
HETATM   17  C   LIG     1      28.276  24.607  27.419  1.00  0.00     0.021 C 
HETATM   18  C   LIG     1      27.185  24.758  26.338  1.00  0.00     0.024 C 
HETATM   19  C   LIG     1      29.273  23.560  27.030  1.00  0.00     0.135 C 
HETATM   20  O   LIG     1      28.963  22.452  26.616  1.00  0.00    -0.297 OA
ENDROOT
BRANCH   9  21
HETATM   21  O   LIG     1      28.981  27.683  34.305  1.00  0.00    -0.316 OA
BRANCH  21  22
HETATM   22  C   LIG     1      28.427  28.611  35.193  1.00  0.00     0.255 C 
HETATM   23  C   LIG     1      26.945  28.701  35.323  1.00  0.00     0.126 C 
HETATM   24  O   LIG     1      29.162  29.397  35.850  1.00  0.00    -0.266 OA
ENDBRANCH  21  22
ENDBRANCH   9  21
TORSDOF 2
ENDMDL
MODEL 13
REMARK VINA RESULT:      -4.6      1.768      7.350
REMARK  2 active torsions:
REMARK  status: ('A' for Active; 'I' for Inactive)
REMARK    1  A    between atoms: C_9  and  O_10 
REMARK    2  A    between atoms: O_10  and  C_11 
ROOT
HETATM    1  C   LIG     1      25.086  21.702  19.812  1.00  0.00     0.006 C 
HETATM    2  C   LIG     1      26.006  20.466  19.715  1.00  0.00     0.013 C 
HETATM    3  C   LIG     1      25.217  19.427  18.923  1.00  0.00     0.079 C 
HETATM    4  C   LIG     1      25.424  22.786  20.896  1.00  0.00    -0.001 C 
HETATM    5  C   LIG     1      26.947  22.998  21.035  1.00  0.00     0.033 C 
HETATM    6  C   LIG     1      27.355  23.694  22.293  1.00  0.00    -0.023 C 
HETATM    7  C   LIG     1      26.846  23.309  23.475  1.00  0.00    -0.072 C 
HETATM    8  C   LIG     1      27.765  23.274  24.681  1.00  0.00     0.067 C 
HETATM    9  C   LIG     1      27.923  21.821  25.220  1.00  0.00     0.136 C 
HETATM   10  C   LIG     1      27.370  20.757  24.243  1.00  0.00     0.034 C 
HETATM   11  C   LIG     1      25.901  21.008  23.812  1.00  0.00     0.016 C 
HETATM   12  C   LIG     1      25.544  22.510  23.566  1.00  0.00    -0.017 C 
HETATM   13  C   LIG     1      24.760  23.066  24.799  1.00  0.00     0.020 C 
HETATM   14  C   LIG     1      24.657  22.737  22.271  1.00  0.00     0.003 C 
HETATM   15  C   LIG     1      23.299  21.973  22.239  1.00  0.00     0.007 C 
HETATM   16  C   LIG     1      23.246  20.778  21.296  1.00  0.00     0.018 C 
HETATM   17  C   LIG     1      23.657  21.133  19.858  1.00  0.00     0.021 C 
HETATM   18  C   LIG     1      22.646  22.072  19.167  1.00  0.00     0.024 C 
HETATM   19  C   LIG     1      23.807  19.854  19.095  1.00  0.00     0.135 C 
HETATM   20  O   LIG     1      22.861  19.194  18.689  1.00  0.00    -0.297 OA
ENDROOT
BRANCH   9  21
HETATM   21  O   LIG     1      27.284  21.664  26.487  1.00  0.00    -0.316 OA
BRANCH  21  22
HETATM   22  C   LIG     1      27.483  22.533  27.566  1.00  0.00     0.255 C 
HETATM   23  C   LIG     1      26.319  23.275  28.128  1.00  0.00     0.126 C 
HETATM   24  O   LIG     1      28.636  22.726  28.037  1.00  0.00    -0.266 OA
ENDBRANCH  21  22
ENDBRANCH   9  21
TORSDOF 2
ENDMDL
MODEL 14
REMARK VINA RESULT:      -4.6      3.743      5.685
REMARK  2 active torsions:
REMARK  status: ('A' for Active; 'I' for Inactive)
REMARK    1  A    between atoms: C_9  and  O_10 
REMARK    2  A    between atoms: O_10  and  C_11 
ROOT
HETATM    1  C   LIG     1      25.421  20.725  22.207  1.00  0.00     0.006 C 
HETATM    2  C   LIG     1      26.534  21.150  23.188  1.00  0.00     0.013 C 
HETATM    3  C   LIG     1      25.866  21.230  24.559  1.00  0.00     0.079 C 
HETATM    4  C   LIG     1      25.671  20.944  20.673  1.00  0.00    -0.001 C 
HETATM    5  C   LIG     1      27.136  20.649  20.286  1.00  0.00     0.033 C 
HETATM    6  C   LIG     1      27.543  21.209  18.962  1.00  0.00    -0.023 C 
HETATM    7  C   LIG     1      27.243  22.479  18.644  1.00  0.00    -0.072 C 
HETATM    8  C   LIG     1      28.277  23.302  17.899  1.00  0.00     0.067 C 
HETATM    9  C   LIG     1      28.754  24.510  18.761  1.00  0.00     0.136 C 
HETATM   10  C   LIG     1      28.302  24.407  20.236  1.00  0.00     0.034 C 
HETATM   11  C   LIG     1      26.774  24.201  20.408  1.00  0.00     0.016 C 
HETATM   12  C   LIG     1      26.125  23.242  19.357  1.00  0.00    -0.017 C 
HETATM   13  C   LIG     1      25.391  24.089  18.267  1.00  0.00     0.020 C 
HETATM   14  C   LIG     1      25.078  22.236  19.993  1.00  0.00     0.003 C 
HETATM   15  C   LIG     1      23.886  22.891  20.754  1.00  0.00     0.007 C 
HETATM   16  C   LIG     1      23.950  22.792  22.272  1.00  0.00     0.018 C 
HETATM   17  C   LIG     1      24.132  21.350  22.770  1.00  0.00     0.021 C 
HETATM   18  C   LIG     1      22.899  20.465  22.491  1.00  0.00     0.024 C 
HETATM   19  C   LIG     1      24.429  21.406  24.237  1.00  0.00     0.135 C 
HETATM   20  O   LIG     1      23.581  21.620  25.091  1.00  0.00    -0.297 OA
ENDROOT
BRANCH   9  21
HETATM   21  O   LIG     1      28.295  25.748  18.219  1.00  0.00    -0.316 OA
BRANCH  21  22
HETATM   22  C   LIG     1      29.020  26.942  18.295  1.00  0.00     0.255 C 
HETATM   23  C   LIG     1      30.498  26.887  18.475  1.00  0.00     0.126 C 
HETATM   24  O   LIG     1      28.435  28.058  18.255  1.00  0.00    -0.266 OA
ENDBRANCH  21  22
ENDBRANCH   9  21
TORSDOF 2
ENDMDL
MODEL 15
REMARK VINA RESULT:      -4.5      1.731      2.412
REMARK  2 active torsions:
REMARK  status: ('A' for Active; 'I' for Inactive)
REMARK    1  A    between atoms: C_9  and  O_10 
REMARK    2  A    between atoms: O_10  and  C_11 
ROOT
HETATM    1  C   LIG     1      25.072  20.955  25.129  1.00  0.00     0.006 C 
HETATM    2  C   LIG     1      25.365  19.465  24.851  1.00  0.00     0.013 C 
HETATM    3  C   LIG     1      26.486  19.079  25.813  1.00  0.00     0.079 C 
HETATM    4  C   LIG     1      24.267  21.760  24.049  1.00  0.00    -0.001 C 
HETATM    5  C   LIG     1      23.152  20.904  23.412  1.00  0.00     0.033 C 
HETATM    6  C   LIG     1      22.622  21.447  22.126  1.00  0.00    -0.023 C 
HETATM    7  C   LIG     1      23.467  21.865  21.169  1.00  0.00    -0.072 C 
HETATM    8  C   LIG     1      23.132  21.553  19.722  1.00  0.00     0.067 C 
HETATM    9  C   LIG     1      24.205  20.614  19.093  1.00  0.00     0.136 C 
HETATM   10  C   LIG     1      25.154  19.998  20.148  1.00  0.00     0.034 C 
HETATM   11  C   LIG     1      25.837  21.049  21.061  1.00  0.00     0.016 C 
HETATM   12  C   LIG     1      24.916  22.239  21.485  1.00  0.00    -0.017 C 
HETATM   13  C   LIG     1      25.258  23.494  20.618  1.00  0.00     0.020 C 
HETATM   14  C   LIG     1      25.071  22.635  23.013  1.00  0.00     0.003 C 
HETATM   15  C   LIG     1      26.507  23.036  23.466  1.00  0.00     0.007 C 
HETATM   16  C   LIG     1      27.235  22.001  24.313  1.00  0.00     0.018 C 
HETATM   17  C   LIG     1      26.426  21.558  25.542  1.00  0.00     0.021 C 
HETATM   18  C   LIG     1      26.256  22.689  26.579  1.00  0.00     0.024 C 
HETATM   19  C   LIG     1      27.120  20.378  26.148  1.00  0.00     0.135 C 
HETATM   20  O   LIG     1      28.139  20.463  26.818  1.00  0.00    -0.297 OA
ENDROOT
BRANCH   9  21
HETATM   21  O   LIG     1      24.982  21.298  18.110  1.00  0.00    -0.316 OA
BRANCH  21  22
HETATM   22  C   LIG     1      25.883  20.657  17.253  1.00  0.00     0.255 C 
HETATM   23  C   LIG     1      27.317  21.061  17.266  1.00  0.00     0.126 C 
HETATM   24  O   LIG     1      25.489  19.773  16.445  1.00  0.00    -0.266 OA
ENDBRANCH  21  22
ENDBRANCH   9  21
TORSDOF 2
ENDMDL
MODEL 16
REMARK VINA RESULT:      -4.5      3.589      8.908
REMARK  2 active torsions:
REMARK  status: ('A' for Active; 'I' for Inactive)
REMARK    1  A    between atoms: C_9  and  O_10 
REMARK    2  A    between atoms: O_10  and  C_11 
ROOT
HETATM    1  C   LIG     1      25.676  21.759  22.942  1.00  0.00     0.006 C 
HETATM    2  C   LIG     1      24.344  22.511  23.144  1.00  0.00     0.013 C 
HETATM    3  C   LIG     1      23.922  22.982  21.754  1.00  0.00     0.079 C 
HETATM    4  C   LIG     1      26.575  21.503  24.203  1.00  0.00    -0.001 C 
HETATM    5  C   LIG     1      25.728  21.164  25.448  1.00  0.00     0.033 C 
HETATM    6  C   LIG     1      26.459  21.305  26.743  1.00  0.00    -0.023 C 
HETATM    7  C   LIG     1      27.197  22.402  26.987  1.00  0.00    -0.072 C 
HETATM    8  C   LIG     1      27.167  22.997  28.382  1.00  0.00     0.067 C 
HETATM    9  C   LIG     1      26.556  24.431  28.363  1.00  0.00     0.136 C 
HETATM   10  C   LIG     1      25.867  24.769  27.020  1.00  0.00     0.034 C 
HETATM   11  C   LIG     1      26.778  24.563  25.782  1.00  0.00     0.016 C 
HETATM   12  C   LIG     1      27.698  23.301  25.855  1.00  0.00    -0.017 C 
HETATM   13  C   LIG     1      29.150  23.738  26.236  1.00  0.00     0.020 C 
HETATM   14  C   LIG     1      27.764  22.496  24.490  1.00  0.00     0.003 C 
HETATM   15  C   LIG     1      28.259  23.304  23.252  1.00  0.00     0.007 C 
HETATM   16  C   LIG     1      27.180  23.681  22.247  1.00  0.00     0.018 C 
HETATM   17  C   LIG     1      26.363  22.472  21.764  1.00  0.00     0.021 C 
HETATM   18  C   LIG     1      27.199  21.494  20.912  1.00  0.00     0.024 C 
HETATM   19  C   LIG     1      25.192  22.990  20.988  1.00  0.00     0.135 C 
HETATM   20  O   LIG     1      25.274  23.421  19.847  1.00  0.00    -0.297 OA
ENDROOT
BRANCH   9  21
HETATM   21  O   LIG     1      27.546  25.421  28.641  1.00  0.00    -0.316 OA
BRANCH  21  22
HETATM   22  C   LIG     1      27.418  26.381  29.650  1.00  0.00     0.255 C 
HETATM   23  C   LIG     1      27.813  27.791  29.371  1.00  0.00     0.126 C 
HETATM   24  O   LIG     1      27.011  26.060  30.800  1.00  0.00    -0.266 OA
ENDBRANCH  21  22
ENDBRANCH   9  21
TORSDOF 2
ENDMDL
MODEL 17
REMARK VINA RESULT:      -4.4      3.080      8.568
REMARK  2 active torsions:
REMARK  status: ('A' for Active; 'I' for Inactive)
REMARK    1  A    between atoms: C_9  and  O_10 
REMARK    2  A    between atoms: O_10  and  C_11 
ROOT
HETATM    1  C   LIG     1      25.350  22.809  23.201  1.00  0.00     0.006 C 
HETATM    2  C   LIG     1      26.796  22.370  22.886  1.00  0.00     0.013 C 
HETATM    3  C   LIG     1      26.737  21.717  21.508  1.00  0.00     0.079 C 
HETATM    4  C   LIG     1      24.991  23.142  24.693  1.00  0.00    -0.001 C 
HETATM    5  C   LIG     1      26.148  23.872  25.409  1.00  0.00     0.033 C 
HETATM    6  C   LIG     1      26.049  23.860  26.899  1.00  0.00    -0.023 C 
HETATM    7  C   LIG     1      25.769  22.718  27.549  1.00  0.00    -0.072 C 
HETATM    8  C   LIG     1      26.496  22.429  28.849  1.00  0.00     0.067 C 
HETATM    9  C   LIG     1      27.388  21.157  28.717  1.00  0.00     0.136 C 
HETATM   10  C   LIG     1      27.550  20.690  27.252  1.00  0.00     0.034 C 
HETATM   11  C   LIG     1      26.203  20.475  26.513  1.00  0.00     0.016 C 
HETATM   12  C   LIG     1      25.103  21.535  26.844  1.00  0.00    -0.017 C 
HETATM   13  C   LIG     1      24.081  20.923  27.856  1.00  0.00     0.020 C 
HETATM   14  C   LIG     1      24.303  22.025  25.566  1.00  0.00     0.003 C 
HETATM   15  C   LIG     1      23.578  20.910  24.753  1.00  0.00     0.007 C 
HETATM   16  C   LIG     1      24.228  20.544  23.426  1.00  0.00     0.018 C 
HETATM   17  C   LIG     1      24.455  21.762  22.516  1.00  0.00     0.021 C 
HETATM   18  C   LIG     1      23.135  22.380  22.011  1.00  0.00     0.024 C 
HETATM   19  C   LIG     1      25.313  21.323  21.369  1.00  0.00     0.135 C 
HETATM   20  O   LIG     1      24.897  20.665  20.426  1.00  0.00    -0.297 OA
ENDROOT
BRANCH   9  21
HETATM   21  O   LIG     1      26.871  20.078  29.495  1.00  0.00    -0.316 OA
BRANCH  21  22
HETATM   22  C   LIG     1      26.478  20.207  30.832  1.00  0.00     0.255 C 
HETATM   23  C   LIG     1      25.098  19.808  31.229  1.00  0.00     0.126 C 
HETATM   24  O   LIG     1      27.262  20.693  31.692  1.00  0.00    -0.266 OA
ENDBRANCH  21  22
ENDBRANCH   9  21
TORSDOF 2
ENDMDL
MODEL 18
REMARK VINA RESULT:      -4.4      2.367      3.882
REMARK  2 active torsions:
REMARK  status: ('A' for Active; 'I' for Inactive)
REMARK    1  A    between atoms: C_9  and  O_10 
REMARK    2  A    between atoms: O_10  and  C_11 
ROOT
HETATM    1  C   LIG     1      25.496  19.935  24.762  1.00  0.00     0.006 C 
HETATM    2  C   LIG     1      26.888  19.543  24.226  1.00  0.00     0.013 C 
HETATM    3  C   LIG     1      27.848  19.722  25.400  1.00  0.00     0.079 C 
HETATM    4  C   LIG     1      24.367  20.251  23.718  1.00  0.00    -0.001 C 
HETATM    5  C   LIG     1      24.440  19.308  22.497  1.00  0.00     0.033 C 
HETATM    6  C   LIG     1      23.681  19.792  21.305  1.00  0.00    -0.023 C 
HETATM    7  C   LIG     1      23.804  21.065  20.896  1.00  0.00    -0.072 C 
HETATM    8  C   LIG     1      23.861  21.344  19.405  1.00  0.00     0.067 C 
HETATM    9  C   LIG     1      25.236  21.959  19.006  1.00  0.00     0.136 C 
HETATM   10  C   LIG     1      26.288  21.855  20.134  1.00  0.00     0.034 C 
HETATM   11  C   LIG     1      25.814  22.447  21.487  1.00  0.00     0.016 C 
HETATM   12  C   LIG     1      24.315  22.163  21.831  1.00  0.00    -0.017 C 
HETATM   13  C   LIG     1      23.464  23.441  21.534  1.00  0.00     0.020 C 
HETATM   14  C   LIG     1      24.089  21.756  23.346  1.00  0.00     0.003 C 
HETATM   15  C   LIG     1      24.571  22.794  24.404  1.00  0.00     0.007 C 
HETATM   16  C   LIG     1      25.844  22.418  25.152  1.00  0.00     0.018 C 
HETATM   17  C   LIG     1      25.764  21.031  25.809  1.00  0.00     0.021 C 
HETATM   18  C   LIG     1      24.744  20.980  26.965  1.00  0.00     0.024 C 
HETATM   19  C   LIG     1      27.136  20.672  26.290  1.00  0.00     0.135 C 
HETATM   20  O   LIG     1      27.645  21.146  27.295  1.00  0.00    -0.297 OA
ENDROOT
BRANCH   9  21
HETATM   21  O   LIG     1      25.101  23.326  18.620  1.00  0.00    -0.316 OA
BRANCH  21  22
HETATM   22  C   LIG     1      26.185  24.197  18.464  1.00  0.00     0.255 C 
HETATM   23  C   LIG     1      26.253  25.433  19.294  1.00  0.00     0.126 C 
HETATM   24  O   LIG     1      27.079  23.969  17.605  1.00  0.00    -0.266 OA
ENDBRANCH  21  22
ENDBRANCH   9  21
TORSDOF 2
ENDMDL
MODEL 19
REMARK VINA RESULT:      -4.3      2.256      4.479
REMARK  2 active torsions:
REMARK  status: ('A' for Active; 'I' for Inactive)
REMARK    1  A    between atoms: C_9  and  O_10 
REMARK    2  A    between atoms: O_10  and  C_11 
ROOT
HETATM    1  C   LIG     1      27.623  22.289  26.078  1.00  0.00     0.006 C 
HETATM    2  C   LIG     1      28.872  22.915  25.421  1.00  0.00     0.013 C 
HETATM    3  C   LIG     1      29.289  24.062  26.338  1.00  0.00     0.079 C 
HETATM    4  C   LIG     1      26.715  21.361  25.196  1.00  0.00    -0.001 C 
HETATM    5  C   LIG     1      27.553  20.485  24.241  1.00  0.00     0.033 C 
HETATM    6  C   LIG     1      26.772  19.889  23.115  1.00  0.00    -0.023 C 
HETATM    7  C   LIG     1      25.928  20.651  22.400  1.00  0.00    -0.072 C 
HETATM    8  C   LIG     1      25.860  20.441  20.899  1.00  0.00     0.067 C 
HETATM    9  C   LIG     1      26.333  21.715  20.136  1.00  0.00     0.136 C 
HETATM   10  C   LIG     1      27.027  22.742  21.060  1.00  0.00     0.034 C 
HETATM   11  C   LIG     1      26.177  23.145  22.294  1.00  0.00     0.016 C 
HETATM   12  C   LIG     1      25.379  21.970  22.946  1.00  0.00    -0.017 C 
HETATM   13  C   LIG     1      23.881  22.052  22.503  1.00  0.00     0.020 C 
HETATM   14  C   LIG     1      25.430  21.984  24.530  1.00  0.00     0.003 C 
HETATM   15  C   LIG     1      24.898  23.280  25.213  1.00  0.00     0.007 C 
HETATM   16  C   LIG     1      25.966  24.192  25.801  1.00  0.00     0.018 C 
HETATM   17  C   LIG     1      26.907  23.462  26.772  1.00  0.00     0.021 C 
HETATM   18  C   LIG     1      26.193  23.012  28.064  1.00  0.00     0.024 C 
HETATM   19  C   LIG     1      28.047  24.381  27.084  1.00  0.00     0.135 C 
HETATM   20  O   LIG     1      27.959  25.333  27.846  1.00  0.00    -0.297 OA
ENDROOT
BRANCH   9  21
HETATM   21  O   LIG     1      25.246  22.352  19.465  1.00  0.00    -0.316 OA
BRANCH  21  22
HETATM   22  C   LIG     1      24.411  21.699  18.553  1.00  0.00     0.255 C 
HETATM   23  C   LIG     1      22.934  21.763  18.740  1.00  0.00     0.126 C 
HETATM   24  O   LIG     1      24.893  21.025  17.602  1.00  0.00    -0.266 OA
ENDBRANCH  21  22
ENDBRANCH   9  21
TORSDOF 2
ENDMDL
