REMARK  3 active torsions:
REMARK  status: ('A' for Active; 'I' for Inactive)
REMARK    1  A    between atoms: N_2  and  N_3 
REMARK    2  A    between atoms: N_3  and  C_4 
REMARK    3  A    between atoms: N_3  and  C_10 
ROOT
HETATM    1  N   LIG     1      -0.078  -0.980  -0.677  1.00  0.00    -0.209 N 
ENDROOT
BRANCH   1   2
HETATM    2  N   LIG     1      -0.145  -2.129  -1.488  1.00  0.00    -0.006 NA
HETATM    3  O   LIG     1       0.869  -2.811  -1.744  1.00  0.00    -0.041 OA
ENDBRANCH   1   2
BRANCH   1   4
HETATM    4  C   LIG     1      -1.252  -0.150  -0.549  1.00  0.00     0.061 A 
HETATM    5  C   LIG     1      -2.207  -0.108  -1.582  1.00  0.00     0.031 A 
HETATM    6  C   LIG     1      -3.349   0.688  -1.460  1.00  0.00     0.002 A 
HETATM    7  C   LIG     1      -3.555   1.447  -0.305  1.00  0.00     0.000 A 
HETATM    8  C   LIG     1      -2.620   1.408   0.731  1.00  0.00     0.002 A 
HETATM    9  C   LIG     1      -1.476   0.613   0.614  1.00  0.00     0.031 A 
ENDBRANCH   1   4
BRANCH   1  10
HETATM   10  C   LIG     1       1.151  -0.636  -0.007  1.00  0.00     0.061 A 
HETATM   11  C   LIG     1       1.692   0.655  -0.136  1.00  0.00     0.031 A 
HETATM   12  C   LIG     1       2.881   0.990   0.519  1.00  0.00     0.002 A 
HETATM   13  C   LIG     1       3.538   0.041   1.307  1.00  0.00     0.000 A 
HETATM   14  C   LIG     1       3.006  -1.245   1.441  1.00  0.00     0.002 A 
HETATM   15  C   LIG     1       1.817  -1.583   0.788  1.00  0.00     0.031 A 
ENDBRANCH   1  10
TORSDOF 3
