MODEL 1
REMARK VINA RESULT:      -9.5      0.000      0.000
REMARK  3 active torsions:
REMARK  status: ('A' for Active; 'I' for Inactive)
REMARK    1  A    between atoms: N_2  and  N_3 
REMARK    2  A    between atoms: N_3  and  C_4 
REMARK    3  A    between atoms: N_3  and  C_10 
ROOT
HETATM    1  N   LIG     1      16.879  37.540  22.959  1.00  0.00    -0.209 N 
ENDROOT
BRANCH   1   2
HETATM    2  N   LIG     1      15.572  38.065  22.942  1.00  0.00    -0.006 NA
HETATM    3  O   LIG     1      15.347  39.254  22.635  1.00  0.00    -0.041 OA
ENDBRANCH   1   2
BRANCH   1   4
HETATM    4  C   LIG     1      17.336  36.852  24.143  1.00  0.00     0.061 A 
HETATM    5  C   LIG     1      18.002  37.559  25.162  1.00  0.00     0.031 A 
HETATM    6  C   LIG     1      18.440  36.899  26.313  1.00  0.00     0.002 A 
HETATM    7  C   LIG     1      18.215  35.529  26.464  1.00  0.00     0.000 A 
HETATM    8  C   LIG     1      17.549  34.817  25.465  1.00  0.00     0.002 A 
HETATM    9  C   LIG     1      17.108  35.472  24.312  1.00  0.00     0.031 A 
ENDBRANCH   1   4
BRANCH   1  10
HETATM   10  C   LIG     1      17.744  37.710  21.819  1.00  0.00     0.061 A 
HETATM   11  C   LIG     1      17.836  36.703  20.843  1.00  0.00     0.031 A 
HETATM   12  C   LIG     1      18.671  36.871  19.733  1.00  0.00     0.002 A 
HETATM   13  C   LIG     1      19.417  38.043  19.589  1.00  0.00     0.000 A 
HETATM   14  C   LIG     1      19.330  39.050  20.555  1.00  0.00     0.002 A 
HETATM   15  C   LIG     1      18.496  38.886  21.665  1.00  0.00     0.031 A 
ENDBRANCH   1  10
TORSDOF 3
ENDMDL
MODEL 2
REMARK VINA RESULT:      -9.5      0.019      5.032
REMARK  3 active torsions:
REMARK  status: ('A' for Active; 'I' for Inactive)
REMARK    1  A    between atoms: N_2  and  N_3 
REMARK    2  A    between atoms: N_3  and  C_4 
REMARK    3  A    between atoms: N_3  and  C_10 
ROOT
HETATM    1  N   LIG     1      16.884  37.550  22.975  1.00  0.00    -0.209 N 
ENDROOT
BRANCH   1   2
HETATM    2  N   LIG     1      15.573  38.059  22.914  1.00  0.00    -0.006 NA
HETATM    3  O   LIG     1      15.345  39.254  22.632  1.00  0.00    -0.041 OA
ENDBRANCH   1   2
BRANCH   1   4
HETATM    4  C   LIG     1      17.750  37.721  21.833  1.00  0.00     0.061 A 
HETATM    5  C   LIG     1      17.830  36.719  20.847  1.00  0.00     0.031 A 
HETATM    6  C   LIG     1      18.660  36.882  19.736  1.00  0.00     0.002 A 
HETATM    7  C   LIG     1      19.417  38.048  19.591  1.00  0.00     0.000 A 
HETATM    8  C   LIG     1      19.340  39.054  20.556  1.00  0.00     0.002 A 
HETATM    9  C   LIG     1      18.510  38.895  21.670  1.00  0.00     0.031 A 
ENDBRANCH   1   4
BRANCH   1  10
HETATM   10  C   LIG     1      17.338  36.855  24.153  1.00  0.00     0.061 A 
HETATM   11  C   LIG     1      18.018  37.549  25.169  1.00  0.00     0.031 A 
HETATM   12  C   LIG     1      18.453  36.875  26.314  1.00  0.00     0.002 A 
HETATM   13  C   LIG     1      18.212  35.506  26.455  1.00  0.00     0.000 A 
HETATM   14  C   LIG     1      17.536  34.808  25.450  1.00  0.00     0.002 A 
HETATM   15  C   LIG     1      17.099  35.479  24.304  1.00  0.00     0.031 A 
ENDBRANCH   1  10
TORSDOF 3
ENDMDL
MODEL 3
REMARK VINA RESULT:      -9.5      0.044      4.703
REMARK  3 active torsions:
REMARK  status: ('A' for Active; 'I' for Inactive)
REMARK    1  A    between atoms: N_2  and  N_3 
REMARK    2  A    between atoms: N_3  and  C_4 
REMARK    3  A    between atoms: N_3  and  C_10 
ROOT
HETATM    1  N   LIG     1      16.866  37.544  22.930  1.00  0.00    -0.209 N 
ENDROOT
BRANCH   1   2
HETATM    2  N   LIG     1      15.555  38.052  22.860  1.00  0.00    -0.006 NA
HETATM    3  O   LIG     1      15.330  39.257  22.624  1.00  0.00    -0.041 OA
ENDBRANCH   1   2
BRANCH   1   4
HETATM    4  C   LIG     1      17.734  37.700  21.788  1.00  0.00     0.061 A 
HETATM    5  C   LIG     1      18.499  38.871  21.633  1.00  0.00     0.031 A 
HETATM    6  C   LIG     1      19.347  39.024  20.533  1.00  0.00     0.002 A 
HETATM    7  C   LIG     1      19.447  38.009  19.578  1.00  0.00     0.000 A 
HETATM    8  C   LIG     1      18.701  36.838  19.724  1.00  0.00     0.002 A 
HETATM    9  C   LIG     1      17.851  36.680  20.823  1.00  0.00     0.031 A 
ENDBRANCH   1   4
BRANCH   1  10
HETATM   10  C   LIG     1      17.317  36.863  24.118  1.00  0.00     0.061 A 
HETATM   11  C   LIG     1      17.113  35.480  24.264  1.00  0.00     0.031 A 
HETATM   12  C   LIG     1      17.556  34.820  25.414  1.00  0.00     0.002 A 
HETATM   13  C   LIG     1      18.205  35.533  26.426  1.00  0.00     0.000 A 
HETATM   14  C   LIG     1      18.412  36.909  26.288  1.00  0.00     0.002 A 
HETATM   15  C   LIG     1      17.971  37.572  25.139  1.00  0.00     0.031 A 
ENDBRANCH   1  10
TORSDOF 3
ENDMDL
MODEL 4
REMARK VINA RESULT:      -9.2      0.999      2.005
REMARK  3 active torsions:
REMARK  status: ('A' for Active; 'I' for Inactive)
REMARK    1  A    between atoms: N_2  and  N_3 
REMARK    2  A    between atoms: N_3  and  C_4 
REMARK    3  A    between atoms: N_3  and  C_10 
ROOT
HETATM    1  N   LIG     1      16.655  37.041  22.546  1.00  0.00    -0.209 N 
ENDROOT
BRANCH   1   2
HETATM    2  N   LIG     1      15.271  37.048  22.289  1.00  0.00    -0.006 NA
HETATM    3  O   LIG     1      14.727  36.161  21.600  1.00  0.00    -0.041 OA
ENDBRANCH   1   2
BRANCH   1   4
HETATM    4  C   LIG     1      17.119  36.618  23.846  1.00  0.00     0.061 A 
HETATM    5  C   LIG     1      17.136  35.252  24.183  1.00  0.00     0.031 A 
HETATM    6  C   LIG     1      17.591  34.837  25.438  1.00  0.00     0.002 A 
HETATM    7  C   LIG     1      18.039  35.778  26.368  1.00  0.00     0.000 A 
HETATM    8  C   LIG     1      18.036  37.136  26.043  1.00  0.00     0.002 A 
HETATM    9  C   LIG     1      17.582  37.556  24.790  1.00  0.00     0.031 A 
ENDBRANCH   1   4
BRANCH   1  10
HETATM   10  C   LIG     1      17.584  37.469  21.530  1.00  0.00     0.061 A 
HETATM   11  C   LIG     1      18.023  38.804  21.486  1.00  0.00     0.031 A 
HETATM   12  C   LIG     1      18.928  39.217  20.504  1.00  0.00     0.002 A 
HETATM   13  C   LIG     1      19.402  38.302  19.559  1.00  0.00     0.000 A 
HETATM   14  C   LIG     1      18.971  36.973  19.596  1.00  0.00     0.002 A 
HETATM   15  C   LIG     1      18.066  36.556  20.577  1.00  0.00     0.031 A 
ENDBRANCH   1  10
TORSDOF 3
ENDMDL
MODEL 5
REMARK VINA RESULT:      -8.1      1.547      2.364
REMARK  3 active torsions:
REMARK  status: ('A' for Active; 'I' for Inactive)
REMARK    1  A    between atoms: N_2  and  N_3 
REMARK    2  A    between atoms: N_3  and  C_4 
REMARK    3  A    between atoms: N_3  and  C_10 
ROOT
HETATM    1  N   LIG     1      16.826  37.407  23.282  1.00  0.00    -0.209 N 
ENDROOT
BRANCH   1   2
HETATM    2  N   LIG     1      16.690  38.808  23.304  1.00  0.00    -0.006 NA
HETATM    3  O   LIG     1      15.734  39.383  22.744  1.00  0.00    -0.041 OA
ENDBRANCH   1   2
BRANCH   1   4
HETATM    4  C   LIG     1      17.350  36.740  24.450  1.00  0.00     0.061 A 
HETATM    5  C   LIG     1      17.975  37.482  25.469  1.00  0.00     0.031 A 
HETATM    6  C   LIG     1      18.478  36.843  26.606  1.00  0.00     0.002 A 
HETATM    7  C   LIG     1      18.359  35.458  26.742  1.00  0.00     0.000 A 
HETATM    8  C   LIG     1      17.734  34.710  25.742  1.00  0.00     0.002 A 
HETATM    9  C   LIG     1      17.229  35.345  24.603  1.00  0.00     0.031 A 
ENDBRANCH   1   4
BRANCH   1  10
HETATM   10  C   LIG     1      16.465  36.662  22.102  1.00  0.00     0.061 A 
HETATM   11  C   LIG     1      17.404  36.458  21.076  1.00  0.00     0.031 A 
HETATM   12  C   LIG     1      17.055  35.731  19.934  1.00  0.00     0.002 A 
HETATM   13  C   LIG     1      15.768  35.201  19.808  1.00  0.00     0.000 A 
HETATM   14  C   LIG     1      14.828  35.398  20.824  1.00  0.00     0.002 A 
HETATM   15  C   LIG     1      15.174  36.125  21.967  1.00  0.00     0.031 A 
ENDBRANCH   1  10
TORSDOF 3
ENDMDL
MODEL 6
REMARK VINA RESULT:      -6.8      6.999      8.297
REMARK  3 active torsions:
REMARK  status: ('A' for Active; 'I' for Inactive)
REMARK    1  A    between atoms: N_2  and  N_3 
REMARK    2  A    between atoms: N_3  and  C_4 
REMARK    3  A    between atoms: N_3  and  C_10 
ROOT
HETATM    1  N   LIG     1      15.309  33.449  16.782  1.00  0.00    -0.209 N 
ENDROOT
BRANCH   1   2
HETATM    2  N   LIG     1      15.803  34.540  16.041  1.00  0.00    -0.006 NA
HETATM    3  O   LIG     1      16.999  34.605  15.689  1.00  0.00    -0.041 OA
ENDBRANCH   1   2
BRANCH   1   4
HETATM    4  C   LIG     1      15.308  33.530  18.223  1.00  0.00     0.061 A 
HETATM    5  C   LIG     1      15.555  34.758  18.864  1.00  0.00     0.031 A 
HETATM    6  C   LIG     1      15.548  34.844  20.259  1.00  0.00     0.002 A 
HETATM    7  C   LIG     1      15.289  33.708  21.030  1.00  0.00     0.000 A 
HETATM    8  C   LIG     1      15.034  32.485  20.407  1.00  0.00     0.002 A 
HETATM    9  C   LIG     1      15.040  32.394  19.012  1.00  0.00     0.031 A 
ENDBRANCH   1   4
BRANCH   1  10
HETATM   10  C   LIG     1      14.834  32.268  16.105  1.00  0.00     0.061 A 
HETATM   11  C   LIG     1      13.588  31.711  16.440  1.00  0.00     0.031 A 
HETATM   12  C   LIG     1      13.125  30.570  15.779  1.00  0.00     0.002 A 
HETATM   13  C   LIG     1      13.900  29.977  14.778  1.00  0.00     0.000 A 
HETATM   14  C   LIG     1      15.140  30.525  14.438  1.00  0.00     0.002 A 
HETATM   15  C   LIG     1      15.606  31.667  15.097  1.00  0.00     0.031 A 
ENDBRANCH   1  10
TORSDOF 3
ENDMDL
MODEL 7
REMARK VINA RESULT:      -6.8      6.962      9.083
REMARK  3 active torsions:
REMARK  status: ('A' for Active; 'I' for Inactive)
REMARK    1  A    between atoms: N_2  and  N_3 
REMARK    2  A    between atoms: N_3  and  C_4 
REMARK    3  A    between atoms: N_3  and  C_10 
ROOT
HETATM    1  N   LIG     1      15.340  33.472  16.818  1.00  0.00    -0.209 N 
ENDROOT
BRANCH   1   2
HETATM    2  N   LIG     1      15.816  34.546  16.042  1.00  0.00    -0.006 NA
HETATM    3  O   LIG     1      17.019  34.640  15.719  1.00  0.00    -0.041 OA
ENDBRANCH   1   2
BRANCH   1   4
HETATM    4  C   LIG     1      14.852  32.292  16.145  1.00  0.00     0.061 A 
HETATM    5  C   LIG     1      13.595  31.754  16.480  1.00  0.00     0.031 A 
HETATM    6  C   LIG     1      13.114  30.616  15.827  1.00  0.00     0.002 A 
HETATM    7  C   LIG     1      13.878  30.004  14.829  1.00  0.00     0.000 A 
HETATM    8  C   LIG     1      15.123  30.532  14.482  1.00  0.00     0.002 A 
HETATM    9  C   LIG     1      15.608  31.671  15.132  1.00  0.00     0.031 A 
ENDBRANCH   1   4
BRANCH   1  10
HETATM   10  C   LIG     1      15.325  33.567  18.256  1.00  0.00     0.061 A 
HETATM   11  C   LIG     1      15.543  34.804  18.887  1.00  0.00     0.031 A 
HETATM   12  C   LIG     1      15.522  34.897  20.282  1.00  0.00     0.002 A 
HETATM   13  C   LIG     1      15.284  33.758  21.057  1.00  0.00     0.000 A 
HETATM   14  C   LIG     1      15.066  32.524  20.436  1.00  0.00     0.002 A 
HETATM   15  C   LIG     1      15.085  32.428  19.041  1.00  0.00     0.031 A 
ENDBRANCH   1  10
TORSDOF 3
ENDMDL
MODEL 8
REMARK VINA RESULT:      -6.6      7.408      9.399
REMARK  3 active torsions:
REMARK  status: ('A' for Active; 'I' for Inactive)
REMARK    1  A    between atoms: N_2  and  N_3 
REMARK    2  A    between atoms: N_3  and  C_4 
REMARK    3  A    between atoms: N_3  and  C_10 
ROOT
HETATM    1  N   LIG     1      15.484  32.993  16.414  1.00  0.00    -0.209 N 
ENDROOT
BRANCH   1   2
HETATM    2  N   LIG     1      16.207  33.860  15.573  1.00  0.00    -0.006 NA
HETATM    3  O   LIG     1      17.453  33.810  15.496  1.00  0.00    -0.041 OA
ENDBRANCH   1   2
BRANCH   1   4
HETATM    4  C   LIG     1      14.787  31.874  15.826  1.00  0.00     0.061 A 
HETATM    5  C   LIG     1      15.393  31.120  14.804  1.00  0.00     0.031 A 
HETATM    6  C   LIG     1      14.726  30.031  14.236  1.00  0.00     0.002 A 
HETATM    7  C   LIG     1      13.450  29.678  14.685  1.00  0.00     0.000 A 
HETATM    8  C   LIG     1      12.841  30.413  15.704  1.00  0.00     0.002 A 
HETATM    9  C   LIG     1      13.504  31.503  16.275  1.00  0.00     0.031 A 
ENDBRANCH   1   4
BRANCH   1  10
HETATM   10  C   LIG     1      15.428  33.239  17.834  1.00  0.00     0.061 A 
HETATM   11  C   LIG     1      15.277  32.170  18.734  1.00  0.00     0.031 A 
HETATM   12  C   LIG     1      15.230  32.409  20.110  1.00  0.00     0.002 A 
HETATM   13  C   LIG     1      15.333  33.714  20.599  1.00  0.00     0.000 A 
HETATM   14  C   LIG     1      15.484  34.783  19.711  1.00  0.00     0.002 A 
HETATM   15  C   LIG     1      15.533  34.548  18.333  1.00  0.00     0.031 A 
ENDBRANCH   1  10
TORSDOF 3
ENDMDL
