REMARK  0 active torsions:
REMARK  status: ('A' for Active; 'I' for Inactive)
ROOT
HETATM    1  C   LIG     1       0.616  -0.529   0.006  1.00  0.00     0.003 A 
HETATM    2  C   LIG     1       1.381  -1.694  -0.020  1.00  0.00     0.014 A 
HETATM    3  C   LIG     1       2.777  -1.559   0.081  1.00  0.00     0.001 A 
HETATM    4  C   LIG     1       3.369  -0.281   0.203  1.00  0.00     0.002 A 
HETATM    5  C   LIG     1       2.570   0.878   0.226  1.00  0.00     0.030 A 
HETATM    6  C   LIG     1       1.188   0.721   0.125  1.00  0.00     0.043 A 
HETATM    7  N   LIG     1       0.254   1.697   0.128  1.00  0.00    -0.355 N 
HETATM    8  C   LIG     1      -0.924   1.046   0.008  1.00  0.00     0.043 A 
HETATM    9  C   LIG     1      -0.743  -0.321  -0.070  1.00  0.00     0.003 A 
HETATM   10  C   LIG     1      -1.814  -1.202  -0.198  1.00  0.00     0.014 A 
HETATM   11  C   LIG     1      -3.108  -0.654  -0.247  1.00  0.00     0.001 A 
HETATM   12  C   LIG     1      -3.299   0.744  -0.168  1.00  0.00     0.002 A 
HETATM   13  C   LIG     1      -2.198   1.611  -0.039  1.00  0.00     0.030 A 
HETATM   14  H   LIG     1       0.408   2.727   0.205  1.00  0.00     0.166 HD
ENDROOT
TORSDOF 0
