MODEL 1
REMARK VINA RESULT:      -7.3      0.000      0.000
REMARK  0 active torsions:
REMARK  status: ('A' for Active; 'I' for Inactive)
ROOT
HETATM    1  C   LIG     1      18.121  37.535  21.159  1.00  0.00     0.003 A 
HETATM    2  C   LIG     1      18.141  36.700  20.043  1.00  0.00     0.014 A 
HETATM    3  C   LIG     1      18.635  37.233  18.840  1.00  0.00     0.001 A 
HETATM    4  C   LIG     1      19.091  38.570  18.779  1.00  0.00     0.002 A 
HETATM    5  C   LIG     1      19.058  39.389  19.923  1.00  0.00     0.030 A 
HETATM    6  C   LIG     1      18.564  38.840  21.106  1.00  0.00     0.043 A 
HETATM    7  N   LIG     1      18.450  39.454  22.304  1.00  0.00    -0.355 N 
HETATM    8  C   LIG     1      17.924  38.515  23.122  1.00  0.00     0.043 A 
HETATM    9  C   LIG     1      17.708  37.325  22.456  1.00  0.00     0.003 A 
HETATM   10  C   LIG     1      17.172  36.209  23.093  1.00  0.00     0.014 A 
HETATM   11  C   LIG     1      16.850  36.327  24.457  1.00  0.00     0.001 A 
HETATM   12  C   LIG     1      17.069  37.543  25.143  1.00  0.00     0.002 A 
HETATM   13  C   LIG     1      17.612  38.655  24.474  1.00  0.00     0.030 A 
HETATM   14  H   LIG     1      18.709  40.436  22.545  1.00  0.00     0.166 HD
ENDROOT
TORSDOF 0
ENDMDL
MODEL 2
REMARK VINA RESULT:      -7.3      0.027      4.324
REMARK  0 active torsions:
REMARK  status: ('A' for Active; 'I' for Inactive)
ROOT
HETATM    1  C   LIG     1      17.722  37.317  22.441  1.00  0.00     0.003 A 
HETATM    2  C   LIG     1      17.185  36.194  23.068  1.00  0.00     0.014 A 
HETATM    3  C   LIG     1      16.862  36.301  24.432  1.00  0.00     0.001 A 
HETATM    4  C   LIG     1      17.081  37.511  25.130  1.00  0.00     0.002 A 
HETATM    5  C   LIG     1      17.626  38.629  24.470  1.00  0.00     0.030 A 
HETATM    6  C   LIG     1      17.938  38.500  23.117  1.00  0.00     0.043 A 
HETATM    7  N   LIG     1      18.464  39.446  22.308  1.00  0.00    -0.355 N 
HETATM    8  C   LIG     1      18.580  38.843  21.104  1.00  0.00     0.043 A 
HETATM    9  C   LIG     1      18.135  37.536  21.146  1.00  0.00     0.003 A 
HETATM   10  C   LIG     1      18.156  36.712  20.023  1.00  0.00     0.014 A 
HETATM   11  C   LIG     1      18.651  37.255  18.824  1.00  0.00     0.001 A 
HETATM   12  C   LIG     1      19.108  38.592  18.776  1.00  0.00     0.002 A 
HETATM   13  C   LIG     1      19.075  39.402  19.926  1.00  0.00     0.030 A 
HETATM   14  H   LIG     1      18.725  40.426  22.558  1.00  0.00     0.166 HD
ENDROOT
TORSDOF 0
ENDMDL
MODEL 3
REMARK VINA RESULT:      -7.2      1.167      4.832
REMARK  0 active torsions:
REMARK  status: ('A' for Active; 'I' for Inactive)
ROOT
HETATM    1  C   LIG     1      17.782  37.729  22.466  1.00  0.00     0.003 A 
HETATM    2  C   LIG     1      17.623  38.399  23.679  1.00  0.00     0.014 A 
HETATM    3  C   LIG     1      17.136  37.660  24.772  1.00  0.00     0.001 A 
HETATM    4  C   LIG     1      16.823  36.289  24.631  1.00  0.00     0.002 A 
HETATM    5  C   LIG     1      16.993  35.640  23.393  1.00  0.00     0.030 A 
HETATM    6  C   LIG     1      17.478  36.391  22.323  1.00  0.00     0.043 A 
HETATM    7  N   LIG     1      17.711  35.960  21.064  1.00  0.00    -0.355 N 
HETATM    8  C   LIG     1      18.169  37.049  20.407  1.00  0.00     0.043 A 
HETATM    9  C   LIG     1      18.226  38.154  21.234  1.00  0.00     0.003 A 
HETATM   10  C   LIG     1      18.668  39.394  20.780  1.00  0.00     0.014 A 
HETATM   11  C   LIG     1      19.061  39.495  19.434  1.00  0.00     0.001 A 
HETATM   12  C   LIG     1      19.004  38.368  18.583  1.00  0.00     0.002 A 
HETATM   13  C   LIG     1      18.553  37.126  19.069  1.00  0.00     0.030 A 
HETATM   14  H   LIG     1      17.568  34.999  20.682  1.00  0.00     0.166 HD
ENDROOT
TORSDOF 0
ENDMDL
MODEL 4
REMARK VINA RESULT:      -7.2      1.167      2.224
REMARK  0 active torsions:
REMARK  status: ('A' for Active; 'I' for Inactive)
ROOT
HETATM    1  C   LIG     1      18.257  38.143  21.266  1.00  0.00     0.003 A 
HETATM    2  C   LIG     1      18.729  39.386  20.851  1.00  0.00     0.014 A 
HETATM    3  C   LIG     1      19.114  39.521  19.505  1.00  0.00     0.001 A 
HETATM    4  C   LIG     1      19.020  38.425  18.617  1.00  0.00     0.002 A 
HETATM    5  C   LIG     1      18.539  37.180  19.066  1.00  0.00     0.030 A 
HETATM    6  C   LIG     1      18.163  37.069  20.404  1.00  0.00     0.043 A 
HETATM    7  N   LIG     1      17.679  35.972  21.027  1.00  0.00    -0.355 N 
HETATM    8  C   LIG     1      17.467  36.366  22.302  1.00  0.00     0.043 A 
HETATM    9  C   LIG     1      17.810  37.691  22.488  1.00  0.00     0.003 A 
HETATM   10  C   LIG     1      17.679  38.322  23.722  1.00  0.00     0.014 A 
HETATM   11  C   LIG     1      17.179  37.562  24.794  1.00  0.00     0.001 A 
HETATM   12  C   LIG     1      16.827  36.205  24.610  1.00  0.00     0.002 A 
HETATM   13  C   LIG     1      16.971  35.593  23.351  1.00  0.00     0.030 A 
HETATM   14  H   LIG     1      17.508  35.028  20.614  1.00  0.00     0.166 HD
ENDROOT
TORSDOF 0
ENDMDL
MODEL 5
REMARK VINA RESULT:      -7.1      2.113      4.904
REMARK  0 active torsions:
REMARK  status: ('A' for Active; 'I' for Inactive)
ROOT
HETATM    1  C   LIG     1      17.377  35.650  24.387  1.00  0.00     0.003 A 
HETATM    2  C   LIG     1      17.421  34.692  25.399  1.00  0.00     0.014 A 
HETATM    3  C   LIG     1      17.843  35.110  26.673  1.00  0.00     0.001 A 
HETATM    4  C   LIG     1      18.206  36.456  26.905  1.00  0.00     0.002 A 
HETATM    5  C   LIG     1      18.151  37.401  25.864  1.00  0.00     0.030 A 
HETATM    6  C   LIG     1      17.730  36.966  24.608  1.00  0.00     0.043 A 
HETATM    7  N   LIG     1      17.608  37.708  23.486  1.00  0.00    -0.355 N 
HETATM    8  C   LIG     1      17.171  36.841  22.546  1.00  0.00     0.043 A 
HETATM    9  C   LIG     1      17.018  35.569  23.060  1.00  0.00     0.003 A 
HETATM   10  C   LIG     1      16.577  34.504  22.279  1.00  0.00     0.014 A 
HETATM   11  C   LIG     1      16.287  34.762  20.927  1.00  0.00     0.001 A 
HETATM   12  C   LIG     1      16.443  36.062  20.395  1.00  0.00     0.002 A 
HETATM   13  C   LIG     1      16.890  37.120  21.208  1.00  0.00     0.030 A 
HETATM   14  H   LIG     1      17.808  38.727  23.370  1.00  0.00     0.166 HD
ENDROOT
TORSDOF 0
ENDMDL
MODEL 6
REMARK VINA RESULT:      -7.1      3.032      3.455
REMARK  0 active torsions:
REMARK  status: ('A' for Active; 'I' for Inactive)
ROOT
HETATM    1  C   LIG     1      16.682  35.585  23.317  1.00  0.00     0.003 A 
HETATM    2  C   LIG     1      16.515  34.501  22.457  1.00  0.00     0.014 A 
HETATM    3  C   LIG     1      15.789  34.716  21.272  1.00  0.00     0.001 A 
HETATM    4  C   LIG     1      15.254  35.991  20.977  1.00  0.00     0.002 A 
HETATM    5  C   LIG     1      15.439  37.067  21.866  1.00  0.00     0.030 A 
HETATM    6  C   LIG     1      16.162  36.831  23.035  1.00  0.00     0.043 A 
HETATM    7  N   LIG     1      16.450  37.722  24.009  1.00  0.00    -0.355 N 
HETATM    8  C   LIG     1      17.162  37.020  24.918  1.00  0.00     0.043 A 
HETATM    9  C   LIG     1      17.325  35.705  24.528  1.00  0.00     0.003 A 
HETATM   10  C   LIG     1      18.027  34.786  25.305  1.00  0.00     0.014 A 
HETATM   11  C   LIG     1      18.575  35.240  26.518  1.00  0.00     0.001 A 
HETATM   12  C   LIG     1      18.411  36.585  26.921  1.00  0.00     0.002 A 
HETATM   13  C   LIG     1      17.696  37.491  26.116  1.00  0.00     0.030 A 
HETATM   14  H   LIG     1      16.180  38.730  24.052  1.00  0.00     0.166 HD
ENDROOT
TORSDOF 0
ENDMDL
MODEL 7
REMARK VINA RESULT:      -7.1      1.528      2.342
REMARK  0 active torsions:
REMARK  status: ('A' for Active; 'I' for Inactive)
ROOT
HETATM    1  C   LIG     1      17.649  36.960  23.051  1.00  0.00     0.003 A 
HETATM    2  C   LIG     1      17.326  36.533  21.764  1.00  0.00     0.014 A 
HETATM    3  C   LIG     1      17.480  37.455  20.714  1.00  0.00     0.001 A 
HETATM    4  C   LIG     1      17.946  38.765  20.969  1.00  0.00     0.002 A 
HETATM    5  C   LIG     1      18.264  39.168  22.280  1.00  0.00     0.030 A 
HETATM    6  C   LIG     1      18.104  38.237  23.307  1.00  0.00     0.043 A 
HETATM    7  N   LIG     1      18.352  38.423  24.622  1.00  0.00    -0.355 N 
HETATM    8  C   LIG     1      18.045  37.241  25.200  1.00  0.00     0.043 A 
HETATM    9  C   LIG     1      17.610  36.318  24.269  1.00  0.00     0.003 A 
HETATM   10  C   LIG     1      17.236  35.026  24.628  1.00  0.00     0.014 A 
HETATM   11  C   LIG     1      17.315  34.678  25.988  1.00  0.00     0.001 A 
HETATM   12  C   LIG     1      17.759  35.618  26.945  1.00  0.00     0.002 A 
HETATM   13  C   LIG     1      18.131  36.917  26.554  1.00  0.00     0.030 A 
HETATM   14  H   LIG     1      18.702  39.289  25.089  1.00  0.00     0.166 HD
ENDROOT
TORSDOF 0
ENDMDL
MODEL 8
REMARK VINA RESULT:      -7.1      1.815      5.153
REMARK  0 active torsions:
REMARK  status: ('A' for Active; 'I' for Inactive)
ROOT
HETATM    1  C   LIG     1      17.977  36.923  24.658  1.00  0.00     0.003 A 
HETATM    2  C   LIG     1      18.436  37.141  25.957  1.00  0.00     0.014 A 
HETATM    3  C   LIG     1      18.213  36.127  26.905  1.00  0.00     0.001 A 
HETATM    4  C   LIG     1      17.547  34.935  26.540  1.00  0.00     0.002 A 
HETATM    5  C   LIG     1      17.094  34.743  25.221  1.00  0.00     0.030 A 
HETATM    6  C   LIG     1      17.326  35.761  24.297  1.00  0.00     0.043 A 
HETATM    7  N   LIG     1      16.975  35.774  22.992  1.00  0.00    -0.355 N 
HETATM    8  C   LIG     1      17.415  36.964  22.529  1.00  0.00     0.043 A 
HETATM    9  C   LIG     1      18.034  37.698  23.522  1.00  0.00     0.003 A 
HETATM   10  C   LIG     1      18.569  38.961  23.282  1.00  0.00     0.014 A 
HETATM   11  C   LIG     1      18.460  39.481  21.980  1.00  0.00     0.001 A 
HETATM   12  C   LIG     1      17.827  38.735  20.961  1.00  0.00     0.002 A 
HETATM   13  C   LIG     1      17.295  37.460  21.231  1.00  0.00     0.030 A 
HETATM   14  H   LIG     1      16.475  35.028  22.459  1.00  0.00     0.166 HD
ENDROOT
TORSDOF 0
ENDMDL
MODEL 9
REMARK VINA RESULT:      -7.1      1.815      3.192
REMARK  0 active torsions:
REMARK  status: ('A' for Active; 'I' for Inactive)
ROOT
HETATM    1  C   LIG     1      18.032  37.697  23.522  1.00  0.00     0.003 A 
HETATM    2  C   LIG     1      18.567  38.962  23.283  1.00  0.00     0.014 A 
HETATM    3  C   LIG     1      18.456  39.480  21.980  1.00  0.00     0.001 A 
HETATM    4  C   LIG     1      17.824  38.733  20.960  1.00  0.00     0.002 A 
HETATM    5  C   LIG     1      17.294  37.458  21.232  1.00  0.00     0.030 A 
HETATM    6  C   LIG     1      17.414  36.963  22.530  1.00  0.00     0.043 A 
HETATM    7  N   LIG     1      16.975  35.772  22.993  1.00  0.00    -0.355 N 
HETATM    8  C   LIG     1      17.326  35.760  24.298  1.00  0.00     0.043 A 
HETATM    9  C   LIG     1      17.977  36.923  24.659  1.00  0.00     0.003 A 
HETATM   10  C   LIG     1      18.434  37.141  25.957  1.00  0.00     0.014 A 
HETATM   11  C   LIG     1      18.213  36.127  26.906  1.00  0.00     0.001 A 
HETATM   12  C   LIG     1      17.548  34.935  26.541  1.00  0.00     0.002 A 
HETATM   13  C   LIG     1      17.096  34.742  25.222  1.00  0.00     0.030 A 
HETATM   14  H   LIG     1      16.476  35.025  22.460  1.00  0.00     0.166 HD
ENDROOT
TORSDOF 0
ENDMDL
MODEL 10
REMARK VINA RESULT:      -6.5      1.929      2.847
REMARK  0 active torsions:
REMARK  status: ('A' for Active; 'I' for Inactive)
ROOT
HETATM    1  C   LIG     1      18.047  37.046  20.374  1.00  0.00     0.003 A 
HETATM    2  C   LIG     1      19.059  37.040  19.415  1.00  0.00     0.014 A 
HETATM    3  C   LIG     1      19.980  38.102  19.433  1.00  0.00     0.001 A 
HETATM    4  C   LIG     1      19.871  39.132  20.395  1.00  0.00     0.002 A 
HETATM    5  C   LIG     1      18.838  39.112  21.351  1.00  0.00     0.030 A 
HETATM    6  C   LIG     1      17.935  38.049  21.315  1.00  0.00     0.043 A 
HETATM    7  N   LIG     1      16.883  37.845  22.137  1.00  0.00    -0.355 N 
HETATM    8  C   LIG     1      16.325  36.693  21.702  1.00  0.00     0.043 A 
HETATM    9  C   LIG     1      17.011  36.173  20.622  1.00  0.00     0.003 A 
HETATM   10  C   LIG     1      16.622  34.989  20.000  1.00  0.00     0.014 A 
HETATM   11  C   LIG     1      15.493  34.324  20.510  1.00  0.00     0.001 A 
HETATM   12  C   LIG     1      14.788  34.852  21.615  1.00  0.00     0.002 A 
HETATM   13  C   LIG     1      15.203  36.051  22.224  1.00  0.00     0.030 A 
HETATM   14  H   LIG     1      16.569  38.444  22.932  1.00  0.00     0.166 HD
ENDROOT
TORSDOF 0
ENDMDL
MODEL 11
REMARK VINA RESULT:      -6.5      1.922      4.162
REMARK  0 active torsions:
REMARK  status: ('A' for Active; 'I' for Inactive)
ROOT
HETATM    1  C   LIG     1      17.017  36.188  20.617  1.00  0.00     0.003 A 
HETATM    2  C   LIG     1      16.617  35.007  19.995  1.00  0.00     0.014 A 
HETATM    3  C   LIG     1      15.491  34.345  20.516  1.00  0.00     0.001 A 
HETATM    4  C   LIG     1      14.799  34.872  21.631  1.00  0.00     0.002 A 
HETATM    5  C   LIG     1      15.227  36.067  22.239  1.00  0.00     0.030 A 
HETATM    6  C   LIG     1      16.346  36.707  21.706  1.00  0.00     0.043 A 
HETATM    7  N   LIG     1      16.912  37.855  22.138  1.00  0.00    -0.355 N 
HETATM    8  C   LIG     1      17.957  38.058  21.305  1.00  0.00     0.043 A 
HETATM    9  C   LIG     1      18.054  37.057  20.359  1.00  0.00     0.003 A 
HETATM   10  C   LIG     1      19.054  37.050  19.390  1.00  0.00     0.014 A 
HETATM   11  C   LIG     1      19.980  38.109  19.400  1.00  0.00     0.001 A 
HETATM   12  C   LIG     1      19.885  39.136  20.366  1.00  0.00     0.002 A 
HETATM   13  C   LIG     1      18.864  39.117  21.334  1.00  0.00     0.030 A 
HETATM   14  H   LIG     1      16.610  38.453  22.939  1.00  0.00     0.166 HD
ENDROOT
TORSDOF 0
ENDMDL
MODEL 12
REMARK VINA RESULT:      -6.4      8.087     10.031
REMARK  0 active torsions:
REMARK  status: ('A' for Active; 'I' for Inactive)
ROOT
HETATM    1  C   LIG     1      15.105  31.622  14.976  1.00  0.00     0.003 A 
HETATM    2  C   LIG     1      14.366  30.531  14.523  1.00  0.00     0.014 A 
HETATM    3  C   LIG     1      13.375  30.015  15.377  1.00  0.00     0.001 A 
HETATM    4  C   LIG     1      13.149  30.593  16.648  1.00  0.00     0.002 A 
HETATM    5  C   LIG     1      13.913  31.695  17.078  1.00  0.00     0.030 A 
HETATM    6  C   LIG     1      14.890  32.190  16.215  1.00  0.00     0.043 A 
HETATM    7  N   LIG     1      15.721  33.231  16.436  1.00  0.00    -0.355 N 
HETATM    8  C   LIG     1      16.472  33.316  15.315  1.00  0.00     0.043 A 
HETATM    9  C   LIG     1      16.123  32.345  14.396  1.00  0.00     0.003 A 
HETATM   10  C   LIG     1      16.759  32.234  13.162  1.00  0.00     0.014 A 
HETATM   11  C   LIG     1      17.784  33.151  12.871  1.00  0.00     0.001 A 
HETATM   12  C   LIG     1      18.145  34.146  13.807  1.00  0.00     0.002 A 
HETATM   13  C   LIG     1      17.485  34.236  15.047  1.00  0.00     0.030 A 
HETATM   14  H   LIG     1      15.774  33.837  17.285  1.00  0.00     0.166 HD
ENDROOT
TORSDOF 0
ENDMDL
MODEL 13
REMARK VINA RESULT:      -6.4      8.104      9.386
REMARK  0 active torsions:
REMARK  status: ('A' for Active; 'I' for Inactive)
ROOT
HETATM    1  C   LIG     1      16.136  32.339  14.375  1.00  0.00     0.003 A 
HETATM    2  C   LIG     1      16.779  32.236  13.143  1.00  0.00     0.014 A 
HETATM    3  C   LIG     1      17.803  33.158  12.863  1.00  0.00     0.001 A 
HETATM    4  C   LIG     1      18.156  34.149  13.807  1.00  0.00     0.002 A 
HETATM    5  C   LIG     1      17.488  34.229  15.043  1.00  0.00     0.030 A 
HETATM    6  C   LIG     1      16.477  33.304  15.301  1.00  0.00     0.043 A 
HETATM    7  N   LIG     1      15.722  33.211  16.417  1.00  0.00    -0.355 N 
HETATM    8  C   LIG     1      14.893  32.169  16.186  1.00  0.00     0.043 A 
HETATM    9  C   LIG     1      15.117  31.608  14.943  1.00  0.00     0.003 A 
HETATM   10  C   LIG     1      14.383  30.518  14.481  1.00  0.00     0.014 A 
HETATM   11  C   LIG     1      13.390  29.994  15.327  1.00  0.00     0.001 A 
HETATM   12  C   LIG     1      13.156  30.564  16.599  1.00  0.00     0.002 A 
HETATM   13  C   LIG     1      13.913  31.665  17.040  1.00  0.00     0.030 A 
HETATM   14  H   LIG     1      15.767  33.812  17.270  1.00  0.00     0.166 HD
ENDROOT
TORSDOF 0
ENDMDL
MODEL 14
REMARK VINA RESULT:      -6.3      2.325      3.571
REMARK  0 active torsions:
REMARK  status: ('A' for Active; 'I' for Inactive)
ROOT
HETATM    1  C   LIG     1      17.360  36.463  22.921  1.00  0.00     0.003 A 
HETATM    2  C   LIG     1      17.489  37.368  21.869  1.00  0.00     0.014 A 
HETATM    3  C   LIG     1      17.032  36.964  20.602  1.00  0.00     0.001 A 
HETATM    4  C   LIG     1      16.467  35.681  20.417  1.00  0.00     0.002 A 
HETATM    5  C   LIG     1      16.351  34.788  21.499  1.00  0.00     0.030 A 
HETATM    6  C   LIG     1      16.809  35.210  22.747  1.00  0.00     0.043 A 
HETATM    7  N   LIG     1      16.789  34.511  23.902  1.00  0.00    -0.355 N 
HETATM    8  C   LIG     1      17.337  35.341  24.816  1.00  0.00     0.043 A 
HETATM    9  C   LIG     1      17.701  36.548  24.253  1.00  0.00     0.003 A 
HETATM   10  C   LIG     1      18.288  37.566  25.000  1.00  0.00     0.014 A 
HETATM   11  C   LIG     1      18.505  37.328  26.369  1.00  0.00     0.001 A 
HETATM   12  C   LIG     1      18.135  36.095  26.951  1.00  0.00     0.002 A 
HETATM   13  C   LIG     1      17.543  35.084  26.171  1.00  0.00     0.030 A 
HETATM   14  H   LIG     1      16.429  33.542  24.055  1.00  0.00     0.166 HD
ENDROOT
TORSDOF 0
ENDMDL
MODEL 15
REMARK VINA RESULT:      -6.2      2.075      4.495
REMARK  0 active torsions:
REMARK  status: ('A' for Active; 'I' for Inactive)
ROOT
HETATM    1  C   LIG     1      16.864  36.878  21.301  1.00  0.00     0.003 A 
HETATM    2  C   LIG     1      15.894  36.894  22.302  1.00  0.00     0.014 A 
HETATM    3  C   LIG     1      14.953  35.849  22.313  1.00  0.00     0.001 A 
HETATM    4  C   LIG     1      15.000  34.828  21.337  1.00  0.00     0.002 A 
HETATM    5  C   LIG     1      15.992  34.839  20.338  1.00  0.00     0.030 A 
HETATM    6  C   LIG     1      16.916  35.884  20.346  1.00  0.00     0.043 A 
HETATM    7  N   LIG     1      17.937  36.076  19.483  1.00  0.00    -0.355 N 
HETATM    8  C   LIG     1      18.535  37.211  19.905  1.00  0.00     0.043 A 
HETATM    9  C   LIG     1      17.906  37.733  21.018  1.00  0.00     0.003 A 
HETATM   10  C   LIG     1      18.344  38.903  21.634  1.00  0.00     0.014 A 
HETATM   11  C   LIG     1      19.463  39.551  21.084  1.00  0.00     0.001 A 
HETATM   12  C   LIG     1      20.111  39.022  19.945  1.00  0.00     0.002 A 
HETATM   13  C   LIG     1      19.646  37.838  19.342  1.00  0.00     0.030 A 
HETATM   14  H   LIG     1      18.204  35.479  18.668  1.00  0.00     0.166 HD
ENDROOT
TORSDOF 0
ENDMDL
MODEL 16
REMARK VINA RESULT:      -6.2      9.657     11.666
REMARK  0 active torsions:
REMARK  status: ('A' for Active; 'I' for Inactive)
ROOT
HETATM    1  C   LIG     1      14.656  30.901  15.265  1.00  0.00     0.003 A 
HETATM    2  C   LIG     1      15.661  31.843  15.480  1.00  0.00     0.014 A 
HETATM    3  C   LIG     1      15.361  32.939  16.309  1.00  0.00     0.001 A 
HETATM    4  C   LIG     1      14.082  33.067  16.896  1.00  0.00     0.002 A 
HETATM    5  C   LIG     1      13.087  32.100  16.660  1.00  0.00     0.030 A 
HETATM    6  C   LIG     1      13.406  31.021  15.836  1.00  0.00     0.043 A 
HETATM    7  N   LIG     1      12.600  29.994  15.488  1.00  0.00    -0.355 N 
HETATM    8  C   LIG     1      13.360  29.218  14.685  1.00  0.00     0.043 A 
HETATM    9  C   LIG     1      14.628  29.741  14.524  1.00  0.00     0.003 A 
HETATM   10  C   LIG     1      15.592  29.115  13.738  1.00  0.00     0.014 A 
HETATM   11  C   LIG     1      15.235  27.914  13.100  1.00  0.00     0.001 A 
HETATM   12  C   LIG     1      13.939  27.373  13.261  1.00  0.00     0.002 A 
HETATM   13  C   LIG     1      12.985  28.028  14.061  1.00  0.00     0.030 A 
HETATM   14  H   LIG     1      11.609  29.835  15.775  1.00  0.00     0.166 HD
ENDROOT
TORSDOF 0
ENDMDL
MODEL 17
REMARK VINA RESULT:      -6.2      9.655     11.363
REMARK  0 active torsions:
REMARK  status: ('A' for Active; 'I' for Inactive)
ROOT
HETATM    1  C   LIG     1      14.654  29.726  14.522  1.00  0.00     0.003 A 
HETATM    2  C   LIG     1      15.617  29.090  13.741  1.00  0.00     0.014 A 
HETATM    3  C   LIG     1      15.251  27.892  13.103  1.00  0.00     0.001 A 
HETATM    4  C   LIG     1      13.949  27.364  13.257  1.00  0.00     0.002 A 
HETATM    5  C   LIG     1      12.997  28.029  14.053  1.00  0.00     0.030 A 
HETATM    6  C   LIG     1      13.381  29.216  14.677  1.00  0.00     0.043 A 
HETATM    7  N   LIG     1      12.624  30.000  15.475  1.00  0.00    -0.355 N 
HETATM    8  C   LIG     1      13.438  31.020  15.826  1.00  0.00     0.043 A 
HETATM    9  C   LIG     1      14.692  30.887  15.262  1.00  0.00     0.003 A 
HETATM   10  C   LIG     1      15.703  31.819  15.481  1.00  0.00     0.014 A 
HETATM   11  C   LIG     1      15.410  32.918  16.307  1.00  0.00     0.001 A 
HETATM   12  C   LIG     1      14.130  33.059  16.887  1.00  0.00     0.002 A 
HETATM   13  C   LIG     1      13.126  32.102  16.649  1.00  0.00     0.030 A 
HETATM   14  H   LIG     1      11.630  29.851  15.758  1.00  0.00     0.166 HD
ENDROOT
TORSDOF 0
ENDMDL
MODEL 18
REMARK VINA RESULT:      -6.1      2.048      3.348
REMARK  0 active torsions:
REMARK  status: ('A' for Active; 'I' for Inactive)
ROOT
HETATM    1  C   LIG     1      17.952  37.503  20.950  1.00  0.00     0.003 A 
HETATM    2  C   LIG     1      18.460  38.531  21.743  1.00  0.00     0.014 A 
HETATM    3  C   LIG     1      19.414  39.388  21.166  1.00  0.00     0.001 A 
HETATM    4  C   LIG     1      19.834  39.200  19.829  1.00  0.00     0.002 A 
HETATM    5  C   LIG     1      19.303  38.152  19.053  1.00  0.00     0.030 A 
HETATM    6  C   LIG     1      18.358  37.315  19.645  1.00  0.00     0.043 A 
HETATM    7  N   LIG     1      17.732  36.261  19.077  1.00  0.00    -0.355 N 
HETATM    8  C   LIG     1      16.920  35.781  20.044  1.00  0.00     0.043 A 
HETATM    9  C   LIG     1      17.027  36.516  21.208  1.00  0.00     0.003 A 
HETATM   10  C   LIG     1      16.285  36.210  22.346  1.00  0.00     0.014 A 
HETATM   11  C   LIG     1      15.408  35.113  22.279  1.00  0.00     0.001 A 
HETATM   12  C   LIG     1      15.294  34.357  21.090  1.00  0.00     0.002 A 
HETATM   13  C   LIG     1      16.057  34.689  19.955  1.00  0.00     0.030 A 
HETATM   14  H   LIG     1      17.850  35.897  18.105  1.00  0.00     0.166 HD
ENDROOT
TORSDOF 0
ENDMDL
MODEL 19
REMARK VINA RESULT:      -6.0      8.394      9.709
REMARK  0 active torsions:
REMARK  status: ('A' for Active; 'I' for Inactive)
ROOT
HETATM    1  C   LIG     1      16.239  32.782  14.912  1.00  0.00     0.003 A 
HETATM    2  C   LIG     1      17.028  33.866  15.294  1.00  0.00     0.014 A 
HETATM    3  C   LIG     1      17.990  34.327  14.377  1.00  0.00     0.001 A 
HETATM    4  C   LIG     1      18.140  33.703  13.118  1.00  0.00     0.002 A 
HETATM    5  C   LIG     1      17.328  32.609  12.760  1.00  0.00     0.030 A 
HETATM    6  C   LIG     1      16.381  32.169  13.684  1.00  0.00     0.043 A 
HETATM    7  N   LIG     1      15.512  31.145  13.536  1.00  0.00    -0.355 N 
HETATM    8  C   LIG     1      14.814  31.117  14.693  1.00  0.00     0.043 A 
HETATM    9  C   LIG     1      15.232  32.105  15.562  1.00  0.00     0.003 A 
HETATM   10  C   LIG     1      14.658  32.273  16.820  1.00  0.00     0.014 A 
HETATM   11  C   LIG     1      13.625  31.395  17.190  1.00  0.00     0.001 A 
HETATM   12  C   LIG     1      13.194  30.381  16.304  1.00  0.00     0.002 A 
HETATM   13  C   LIG     1      13.791  30.234  15.039  1.00  0.00     0.030 A 
HETATM   14  H   LIG     1      15.404  30.514  12.711  1.00  0.00     0.166 HD
ENDROOT
TORSDOF 0
ENDMDL
MODEL 20
REMARK VINA RESULT:      -6.0      8.381     10.384
REMARK  0 active torsions:
REMARK  status: ('A' for Active; 'I' for Inactive)
ROOT
HETATM    1  C   LIG     1      15.223  32.109  15.592  1.00  0.00     0.003 A 
HETATM    2  C   LIG     1      14.662  32.283  16.856  1.00  0.00     0.014 A 
HETATM    3  C   LIG     1      13.630  31.407  17.237  1.00  0.00     0.001 A 
HETATM    4  C   LIG     1      13.188  30.392  16.359  1.00  0.00     0.002 A 
HETATM    5  C   LIG     1      13.773  30.241  15.087  1.00  0.00     0.030 A 
HETATM    6  C   LIG     1      14.795  31.120  14.730  1.00  0.00     0.043 A 
HETATM    7  N   LIG     1      15.481  31.143  13.567  1.00  0.00    -0.355 N 
HETATM    8  C   LIG     1      16.354  32.166  13.703  1.00  0.00     0.043 A 
HETATM    9  C   LIG     1      16.226  32.783  14.931  1.00  0.00     0.003 A 
HETATM   10  C   LIG     1      17.020  33.865  15.301  1.00  0.00     0.014 A 
HETATM   11  C   LIG     1      17.974  34.322  14.375  1.00  0.00     0.001 A 
HETATM   12  C   LIG     1      18.110  33.694  13.116  1.00  0.00     0.002 A 
HETATM   13  C   LIG     1      17.293  32.602  12.768  1.00  0.00     0.030 A 
HETATM   14  H   LIG     1      15.363  30.511  12.744  1.00  0.00     0.166 HD
ENDROOT
TORSDOF 0
ENDMDL
