MODEL 1
REMARK VINA RESULT:      -7.7      0.000      0.000
REMARK  0 active torsions:
REMARK  status: ('A' for Active; 'I' for Inactive)
ROOT
HETATM    1  C   LIG     1      17.850  37.780  22.586  1.00  0.00    -0.019 A 
HETATM    2  C   LIG     1      17.814  38.534  23.759  1.00  0.00     0.013 A 
HETATM    3  C   LIG     1      17.346  37.917  24.930  1.00  0.00     0.001 A 
HETATM    4  C   LIG     1      16.929  36.570  24.909  1.00  0.00     0.001 A 
HETATM    5  C   LIG     1      16.975  35.831  23.714  1.00  0.00     0.008 A 
HETATM    6  C   LIG     1      17.442  36.459  22.557  1.00  0.00    -0.043 A 
HETATM    7  C   LIG     1      17.578  35.868  21.184  1.00  0.00     0.078 A 
HETATM    8  C   LIG     1      18.123  37.048  20.431  1.00  0.00    -0.043 A 
HETATM    9  C   LIG     1      18.276  38.149  21.253  1.00  0.00    -0.019 A 
HETATM   10  C   LIG     1      18.769  39.362  20.772  1.00  0.00     0.013 A 
HETATM   11  C   LIG     1      19.112  39.446  19.412  1.00  0.00     0.001 A 
HETATM   12  C   LIG     1      18.958  38.327  18.570  1.00  0.00     0.001 A 
HETATM   13  C   LIG     1      18.459  37.116  19.079  1.00  0.00     0.008 A 
ENDROOT
TORSDOF 0
ENDMDL
MODEL 2
REMARK VINA RESULT:      -7.7      0.125      4.413
REMARK  0 active torsions:
REMARK  status: ('A' for Active; 'I' for Inactive)
ROOT
HETATM    1  C   LIG     1      18.240  38.135  21.213  1.00  0.00    -0.019 A 
HETATM    2  C   LIG     1      18.703  39.376  20.774  1.00  0.00     0.013 A 
HETATM    3  C   LIG     1      19.070  39.507  19.425  1.00  0.00     0.001 A 
HETATM    4  C   LIG     1      18.967  38.408  18.548  1.00  0.00     0.001 A 
HETATM    5  C   LIG     1      18.497  37.168  19.014  1.00  0.00     0.008 A 
HETATM    6  C   LIG     1      18.136  37.053  20.358  1.00  0.00    -0.043 A 
HETATM    7  C   LIG     1      17.613  35.837  21.067  1.00  0.00     0.078 A 
HETATM    8  C   LIG     1      17.433  36.385  22.454  1.00  0.00    -0.043 A 
HETATM    9  C   LIG     1      17.799  37.717  22.526  1.00  0.00    -0.019 A 
HETATM   10  C   LIG     1      17.716  38.438  23.717  1.00  0.00     0.013 A 
HETATM   11  C   LIG     1      17.246  37.774  24.863  1.00  0.00     0.001 A 
HETATM   12  C   LIG     1      16.872  36.417  24.796  1.00  0.00     0.001 A 
HETATM   13  C   LIG     1      16.965  35.712  23.583  1.00  0.00     0.008 A 
ENDROOT
TORSDOF 0
ENDMDL
MODEL 3
REMARK VINA RESULT:      -7.7      0.749      2.217
REMARK  0 active torsions:
REMARK  status: ('A' for Active; 'I' for Inactive)
ROOT
HETATM    1  C   LIG     1      17.678  36.744  22.181  1.00  0.00    -0.019 A 
HETATM    2  C   LIG     1      17.332  35.424  22.470  1.00  0.00     0.013 A 
HETATM    3  C   LIG     1      16.928  35.117  23.779  1.00  0.00     0.001 A 
HETATM    4  C   LIG     1      16.875  36.124  24.764  1.00  0.00     0.001 A 
HETATM    5  C   LIG     1      17.229  37.447  24.447  1.00  0.00     0.008 A 
HETATM    6  C   LIG     1      17.629  37.737  23.141  1.00  0.00    -0.043 A 
HETATM    7  C   LIG     1      18.046  39.068  22.584  1.00  0.00     0.078 A 
HETATM    8  C   LIG     1      18.341  38.688  21.161  1.00  0.00    -0.043 A 
HETATM    9  C   LIG     1      18.124  37.340  20.939  1.00  0.00    -0.019 A 
HETATM   10  C   LIG     1      18.332  36.759  19.688  1.00  0.00     0.013 A 
HETATM   11  C   LIG     1      18.775  37.582  18.640  1.00  0.00     0.001 A 
HETATM   12  C   LIG     1      18.998  38.956  18.860  1.00  0.00     0.001 A 
HETATM   13  C   LIG     1      18.781  39.518  20.130  1.00  0.00     0.008 A 
ENDROOT
TORSDOF 0
ENDMDL
MODEL 4
REMARK VINA RESULT:      -7.6      0.748      4.910
REMARK  0 active torsions:
REMARK  status: ('A' for Active; 'I' for Inactive)
ROOT
HETATM    1  C   LIG     1      18.120  37.338  20.953  1.00  0.00    -0.019 A 
HETATM    2  C   LIG     1      18.329  36.755  19.703  1.00  0.00     0.013 A 
HETATM    3  C   LIG     1      18.770  37.577  18.653  1.00  0.00     0.001 A 
HETATM    4  C   LIG     1      18.992  38.952  18.869  1.00  0.00     0.001 A 
HETATM    5  C   LIG     1      18.774  39.516  20.139  1.00  0.00     0.008 A 
HETATM    6  C   LIG     1      18.336  38.686  21.172  1.00  0.00    -0.043 A 
HETATM    7  C   LIG     1      18.043  39.068  22.594  1.00  0.00     0.078 A 
HETATM    8  C   LIG     1      17.627  37.739  23.155  1.00  0.00    -0.043 A 
HETATM    9  C   LIG     1      17.676  36.744  22.195  1.00  0.00    -0.019 A 
HETATM   10  C   LIG     1      17.332  35.424  22.487  1.00  0.00     0.013 A 
HETATM   11  C   LIG     1      16.928  35.119  23.797  1.00  0.00     0.001 A 
HETATM   12  C   LIG     1      16.876  36.127  24.779  1.00  0.00     0.001 A 
HETATM   13  C   LIG     1      17.227  37.451  24.460  1.00  0.00     0.008 A 
ENDROOT
TORSDOF 0
ENDMDL
MODEL 5
REMARK VINA RESULT:      -7.6      1.404      4.816
REMARK  0 active torsions:
REMARK  status: ('A' for Active; 'I' for Inactive)
ROOT
HETATM    1  C   LIG     1      18.016  37.661  23.368  1.00  0.00    -0.019 A 
HETATM    2  C   LIG     1      18.536  38.940  23.167  1.00  0.00     0.013 A 
HETATM    3  C   LIG     1      18.486  39.479  21.872  1.00  0.00     0.001 A 
HETATM    4  C   LIG     1      17.922  38.739  20.812  1.00  0.00     0.001 A 
HETATM    5  C   LIG     1      17.405  37.452  21.041  1.00  0.00     0.008 A 
HETATM    6  C   LIG     1      17.463  36.929  22.335  1.00  0.00    -0.043 A 
HETATM    7  C   LIG     1      16.975  35.589  22.805  1.00  0.00     0.078 A 
HETATM    8  C   LIG     1      17.333  35.663  24.262  1.00  0.00    -0.043 A 
HETATM    9  C   LIG     1      17.935  36.868  24.576  1.00  0.00    -0.019 A 
HETATM   10  C   LIG     1      18.354  37.163  25.874  1.00  0.00     0.013 A 
HETATM   11  C   LIG     1      18.150  36.196  26.872  1.00  0.00     0.001 A 
HETATM   12  C   LIG     1      17.537  34.967  26.558  1.00  0.00     0.001 A 
HETATM   13  C   LIG     1      17.124  34.693  25.242  1.00  0.00     0.008 A 
ENDROOT
TORSDOF 0
ENDMDL
MODEL 6
REMARK VINA RESULT:      -7.6      1.405      2.278
REMARK  0 active torsions:
REMARK  status: ('A' for Active; 'I' for Inactive)
ROOT
HETATM    1  C   LIG     1      17.933  36.869  24.578  1.00  0.00    -0.019 A 
HETATM    2  C   LIG     1      18.352  37.164  25.875  1.00  0.00     0.013 A 
HETATM    3  C   LIG     1      18.148  36.198  26.874  1.00  0.00     0.001 A 
HETATM    4  C   LIG     1      17.536  34.967  26.560  1.00  0.00     0.001 A 
HETATM    5  C   LIG     1      17.123  34.694  25.244  1.00  0.00     0.008 A 
HETATM    6  C   LIG     1      17.333  35.664  24.263  1.00  0.00    -0.043 A 
HETATM    7  C   LIG     1      16.976  35.588  22.806  1.00  0.00     0.078 A 
HETATM    8  C   LIG     1      17.461  36.929  22.335  1.00  0.00    -0.043 A 
HETATM    9  C   LIG     1      18.013  37.662  23.370  1.00  0.00    -0.019 A 
HETATM   10  C   LIG     1      18.532  38.942  23.168  1.00  0.00     0.013 A 
HETATM   11  C   LIG     1      18.481  39.481  21.872  1.00  0.00     0.001 A 
HETATM   12  C   LIG     1      17.920  38.739  20.814  1.00  0.00     0.001 A 
HETATM   13  C   LIG     1      17.404  37.451  21.043  1.00  0.00     0.008 A 
ENDROOT
TORSDOF 0
ENDMDL
MODEL 7
REMARK VINA RESULT:      -7.6      2.026      5.293
REMARK  0 active torsions:
REMARK  status: ('A' for Active; 'I' for Inactive)
ROOT
HETATM    1  C   LIG     1      17.009  35.588  22.968  1.00  0.00    -0.019 A 
HETATM    2  C   LIG     1      16.568  34.479  22.245  1.00  0.00     0.013 A 
HETATM    3  C   LIG     1      16.255  34.655  20.888  1.00  0.00     0.001 A 
HETATM    4  C   LIG     1      16.387  35.922  20.284  1.00  0.00     0.001 A 
HETATM    5  C   LIG     1      16.833  37.024  21.034  1.00  0.00     0.008 A 
HETATM    6  C   LIG     1      17.140  36.833  22.383  1.00  0.00    -0.043 A 
HETATM    7  C   LIG     1      17.630  37.857  23.366  1.00  0.00     0.078 A 
HETATM    8  C   LIG     1      17.759  37.012  24.601  1.00  0.00    -0.043 A 
HETATM    9  C   LIG     1      17.396  35.700  24.358  1.00  0.00    -0.019 A 
HETATM   10  C   LIG     1      17.436  34.730  25.360  1.00  0.00     0.013 A 
HETATM   11  C   LIG     1      17.858  35.118  26.642  1.00  0.00     0.001 A 
HETATM   12  C   LIG     1      18.228  36.454  26.895  1.00  0.00     0.001 A 
HETATM   13  C   LIG     1      18.180  37.413  25.869  1.00  0.00     0.008 A 
ENDROOT
TORSDOF 0
ENDMDL
MODEL 8
REMARK VINA RESULT:      -7.5      2.068      3.578
REMARK  0 active torsions:
REMARK  status: ('A' for Active; 'I' for Inactive)
ROOT
HETATM    1  C   LIG     1      17.373  35.693  24.312  1.00  0.00    -0.019 A 
HETATM    2  C   LIG     1      17.433  34.752  25.340  1.00  0.00     0.013 A 
HETATM    3  C   LIG     1      17.874  35.177  26.604  1.00  0.00     0.001 A 
HETATM    4  C   LIG     1      18.242  36.521  26.815  1.00  0.00     0.001 A 
HETATM    5  C   LIG     1      18.173  37.451  25.763  1.00  0.00     0.008 A 
HETATM    6  C   LIG     1      17.733  37.013  24.512  1.00  0.00    -0.043 A 
HETATM    7  C   LIG     1      17.581  37.824  23.258  1.00  0.00     0.078 A 
HETATM    8  C   LIG     1      17.081  36.772  22.310  1.00  0.00    -0.043 A 
HETATM    9  C   LIG     1      16.965  35.542  22.932  1.00  0.00    -0.019 A 
HETATM   10  C   LIG     1      16.517  34.412  22.248  1.00  0.00     0.013 A 
HETATM   11  C   LIG     1      16.182  34.549  20.890  1.00  0.00     0.001 A 
HETATM   12  C   LIG     1      16.298  35.799  20.251  1.00  0.00     0.001 A 
HETATM   13  C   LIG     1      16.752  36.923  20.963  1.00  0.00     0.008 A 
ENDROOT
TORSDOF 0
ENDMDL
MODEL 9
REMARK VINA RESULT:      -7.0      1.615      3.191
REMARK  0 active torsions:
REMARK  status: ('A' for Active; 'I' for Inactive)
ROOT
HETATM    1  C   LIG     1      16.971  36.166  20.657  1.00  0.00    -0.019 A 
HETATM    2  C   LIG     1      16.623  34.979  20.014  1.00  0.00     0.013 A 
HETATM    3  C   LIG     1      15.502  34.275  20.482  1.00  0.00     0.001 A 
HETATM    4  C   LIG     1      14.757  34.766  21.573  1.00  0.00     0.001 A 
HETATM    5  C   LIG     1      15.128  35.966  22.205  1.00  0.00     0.008 A 
HETATM    6  C   LIG     1      16.245  36.654  21.728  1.00  0.00    -0.043 A 
HETATM    7  C   LIG     1      16.818  37.943  22.243  1.00  0.00     0.078 A 
HETATM    8  C   LIG     1      17.980  38.119  21.308  1.00  0.00    -0.043 A 
HETATM    9  C   LIG     1      18.059  37.084  20.394  1.00  0.00    -0.019 A 
HETATM   10  C   LIG     1      19.061  37.035  19.424  1.00  0.00     0.013 A 
HETATM   11  C   LIG     1      20.005  38.075  19.394  1.00  0.00     0.001 A 
HETATM   12  C   LIG     1      19.930  39.132  20.322  1.00  0.00     0.001 A 
HETATM   13  C   LIG     1      18.911  39.158  21.290  1.00  0.00     0.008 A 
ENDROOT
TORSDOF 0
ENDMDL
MODEL 10
REMARK VINA RESULT:      -7.0      1.604      4.565
REMARK  0 active torsions:
REMARK  status: ('A' for Active; 'I' for Inactive)
ROOT
HETATM    1  C   LIG     1      18.043  37.123  20.396  1.00  0.00    -0.019 A 
HETATM    2  C   LIG     1      19.028  37.094  19.408  1.00  0.00     0.013 A 
HETATM    3  C   LIG     1      19.972  38.132  19.383  1.00  0.00     0.001 A 
HETATM    4  C   LIG     1      19.917  39.169  20.337  1.00  0.00     0.001 A 
HETATM    5  C   LIG     1      18.915  39.175  21.323  1.00  0.00     0.008 A 
HETATM    6  C   LIG     1      17.983  38.136  21.334  1.00  0.00    -0.043 A 
HETATM    7  C   LIG     1      16.838  37.941  22.286  1.00  0.00     0.078 A 
HETATM    8  C   LIG     1      16.252  36.665  21.752  1.00  0.00    -0.043 A 
HETATM    9  C   LIG     1      16.958  36.201  20.658  1.00  0.00    -0.019 A 
HETATM   10  C   LIG     1      16.597  35.028  19.994  1.00  0.00     0.013 A 
HETATM   11  C   LIG     1      15.482  34.316  20.467  1.00  0.00     0.001 A 
HETATM   12  C   LIG     1      14.759  34.784  21.581  1.00  0.00     0.001 A 
HETATM   13  C   LIG     1      15.143  35.969  22.233  1.00  0.00     0.008 A 
ENDROOT
TORSDOF 0
ENDMDL
MODEL 11
REMARK VINA RESULT:      -6.5      7.546      9.458
REMARK  0 active torsions:
REMARK  status: ('A' for Active; 'I' for Inactive)
ROOT
HETATM    1  C   LIG     1      15.056  31.487  14.828  1.00  0.00    -0.019 A 
HETATM    2  C   LIG     1      14.423  30.387  14.249  1.00  0.00     0.013 A 
HETATM    3  C   LIG     1      13.391  29.762  14.967  1.00  0.00     0.001 A 
HETATM    4  C   LIG     1      13.012  30.245  16.236  1.00  0.00     0.001 A 
HETATM    5  C   LIG     1      13.665  31.355  16.798  1.00  0.00     0.008 A 
HETATM    6  C   LIG     1      14.690  31.965  16.073  1.00  0.00    -0.043 A 
HETATM    7  C   LIG     1      15.517  33.153  16.473  1.00  0.00     0.078 A 
HETATM    8  C   LIG     1      16.410  33.283  15.273  1.00  0.00    -0.043 A 
HETATM    9  C   LIG     1      16.134  32.312  14.327  1.00  0.00    -0.019 A 
HETATM   10  C   LIG     1      16.839  32.236  13.126  1.00  0.00     0.013 A 
HETATM   11  C   LIG     1      17.853  33.180  12.891  1.00  0.00     0.001 A 
HETATM   12  C   LIG     1      18.139  34.170  13.851  1.00  0.00     0.001 A 
HETATM   13  C   LIG     1      17.414  34.226  15.054  1.00  0.00     0.008 A 
ENDROOT
TORSDOF 0
ENDMDL
MODEL 12
REMARK VINA RESULT:      -6.5      7.544     10.132
REMARK  0 active torsions:
REMARK  status: ('A' for Active; 'I' for Inactive)
ROOT
HETATM    1  C   LIG     1      16.147  32.321  14.322  1.00  0.00    -0.019 A 
HETATM    2  C   LIG     1      16.854  32.236  13.123  1.00  0.00     0.013 A 
HETATM    3  C   LIG     1      17.867  33.178  12.882  1.00  0.00     0.001 A 
HETATM    4  C   LIG     1      18.153  34.177  13.835  1.00  0.00     0.001 A 
HETATM    5  C   LIG     1      17.426  34.242  15.036  1.00  0.00     0.008 A 
HETATM    6  C   LIG     1      16.421  33.298  15.261  1.00  0.00    -0.043 A 
HETATM    7  C   LIG     1      15.528  33.178  16.462  1.00  0.00     0.078 A 
HETATM    8  C   LIG     1      14.701  31.987  16.070  1.00  0.00    -0.043 A 
HETATM    9  C   LIG     1      15.069  31.500  14.829  1.00  0.00    -0.019 A 
HETATM   10  C   LIG     1      14.438  30.394  14.258  1.00  0.00     0.013 A 
HETATM   11  C   LIG     1      13.403  29.776  14.979  1.00  0.00     0.001 A 
HETATM   12  C   LIG     1      13.024  30.268  16.243  1.00  0.00     0.001 A 
HETATM   13  C   LIG     1      13.676  31.383  16.798  1.00  0.00     0.008 A 
ENDROOT
TORSDOF 0
ENDMDL
MODEL 13
REMARK VINA RESULT:      -6.4      7.811      9.200
REMARK  0 active torsions:
REMARK  status: ('A' for Active; 'I' for Inactive)
ROOT
HETATM    1  C   LIG     1      15.197  32.077  15.568  1.00  0.00    -0.019 A 
HETATM    2  C   LIG     1      14.664  32.316  16.834  1.00  0.00     0.013 A 
HETATM    3  C   LIG     1      13.621  31.489  17.282  1.00  0.00     0.001 A 
HETATM    4  C   LIG     1      13.136  30.448  16.464  1.00  0.00     0.001 A 
HETATM    5  C   LIG     1      13.691  30.226  15.192  1.00  0.00     0.008 A 
HETATM    6  C   LIG     1      14.727  31.057  14.761  1.00  0.00    -0.043 A 
HETATM    7  C   LIG     1      15.462  31.004  13.453  1.00  0.00     0.078 A 
HETATM    8  C   LIG     1      16.422  32.145  13.631  1.00  0.00    -0.043 A 
HETATM    9  C   LIG     1      16.259  32.759  14.860  1.00  0.00    -0.019 A 
HETATM   10  C   LIG     1      17.044  33.845  15.248  1.00  0.00     0.013 A 
HETATM   11  C   LIG     1      18.018  34.313  14.351  1.00  0.00     0.001 A 
HETATM   12  C   LIG     1      18.189  33.693  13.098  1.00  0.00     0.001 A 
HETATM   13  C   LIG     1      17.386  32.599  12.730  1.00  0.00     0.008 A 
ENDROOT
TORSDOF 0
ENDMDL
MODEL 14
REMARK VINA RESULT:      -6.4      7.796      9.988
REMARK  0 active torsions:
REMARK  status: ('A' for Active; 'I' for Inactive)
ROOT
HETATM    1  C   LIG     1      16.231  32.770  14.882  1.00  0.00    -0.019 A 
HETATM    2  C   LIG     1      17.001  33.864  15.279  1.00  0.00     0.013 A 
HETATM    3  C   LIG     1      17.981  34.341  14.394  1.00  0.00     0.001 A 
HETATM    4  C   LIG     1      18.171  33.724  13.141  1.00  0.00     0.001 A 
HETATM    5  C   LIG     1      17.382  32.623  12.764  1.00  0.00     0.008 A 
HETATM    6  C   LIG     1      16.412  32.160  13.655  1.00  0.00    -0.043 A 
HETATM    7  C   LIG     1      15.464  31.011  13.464  1.00  0.00     0.078 A 
HETATM    8  C   LIG     1      14.715  31.055  14.764  1.00  0.00    -0.043 A 
HETATM    9  C   LIG     1      15.167  32.078  15.577  1.00  0.00    -0.019 A 
HETATM   10  C   LIG     1      14.617  32.312  16.838  1.00  0.00     0.013 A 
HETATM   11  C   LIG     1      13.578  31.474  17.273  1.00  0.00     0.001 A 
HETATM   12  C   LIG     1      13.112  30.430  16.450  1.00  0.00     0.001 A 
HETATM   13  C   LIG     1      13.683  30.215  15.183  1.00  0.00     0.008 A 
ENDROOT
TORSDOF 0
ENDMDL
MODEL 15
REMARK VINA RESULT:      -6.4      8.983     10.868
REMARK  0 active torsions:
REMARK  status: ('A' for Active; 'I' for Inactive)
ROOT
HETATM    1  C   LIG     1      14.993  31.134  15.204  1.00  0.00    -0.019 A 
HETATM    2  C   LIG     1      16.108  31.972  15.223  1.00  0.00     0.013 A 
HETATM    3  C   LIG     1      16.044  33.143  15.995  1.00  0.00     0.001 A 
HETATM    4  C   LIG     1      14.879  33.451  16.726  1.00  0.00     0.001 A 
HETATM    5  C   LIG     1      13.768  32.590  16.691  1.00  0.00     0.008 A 
HETATM    6  C   LIG     1      13.848  31.430  15.919  1.00  0.00    -0.043 A 
HETATM    7  C   LIG     1      12.794  30.376  15.736  1.00  0.00     0.078 A 
HETATM    8  C   LIG     1      13.507  29.433  14.810  1.00  0.00    -0.043 A 
HETATM    9  C   LIG     1      14.780  29.882  14.509  1.00  0.00    -0.019 A 
HETATM   10  C   LIG     1      15.631  29.168  13.664  1.00  0.00     0.013 A 
HETATM   11  C   LIG     1      15.161  27.963  13.116  1.00  0.00     0.001 A 
HETATM   12  C   LIG     1      13.865  27.500  13.419  1.00  0.00     0.001 A 
HETATM   13  C   LIG     1      13.027  28.238  14.273  1.00  0.00     0.008 A 
ENDROOT
TORSDOF 0
ENDMDL
MODEL 16
REMARK VINA RESULT:      -6.4      8.951     10.996
REMARK  0 active torsions:
REMARK  status: ('A' for Active; 'I' for Inactive)
ROOT
HETATM    1  C   LIG     1      14.781  29.909  14.519  1.00  0.00    -0.019 A 
HETATM    2  C   LIG     1      15.617  29.186  13.667  1.00  0.00     0.013 A 
HETATM    3  C   LIG     1      15.133  27.984  13.126  1.00  0.00     0.001 A 
HETATM    4  C   LIG     1      13.835  27.532  13.441  1.00  0.00     0.001 A 
HETATM    5  C   LIG     1      13.012  28.279  14.302  1.00  0.00     0.008 A 
HETATM    6  C   LIG     1      13.507  29.471  14.832  1.00  0.00    -0.043 A 
HETATM    7  C   LIG     1      12.810  30.421  15.762  1.00  0.00     0.078 A 
HETATM    8  C   LIG     1      13.874  31.467  15.935  1.00  0.00    -0.043 A 
HETATM    9  C   LIG     1      15.011  31.159  15.210  1.00  0.00    -0.019 A 
HETATM   10  C   LIG     1      16.133  31.988  15.216  1.00  0.00     0.013 A 
HETATM   11  C   LIG     1      16.086  33.161  15.988  1.00  0.00     0.001 A 
HETATM   12  C   LIG     1      14.931  33.480  16.728  1.00  0.00     0.001 A 
HETATM   13  C   LIG     1      13.813  32.628  16.705  1.00  0.00     0.008 A 
ENDROOT
TORSDOF 0
ENDMDL
MODEL 17
REMARK VINA RESULT:      -6.2      9.456     11.310
REMARK  0 active torsions:
REMARK  status: ('A' for Active; 'I' for Inactive)
ROOT
HETATM    1  C   LIG     1      13.825  30.505  15.378  1.00  0.00    -0.019 A 
HETATM    2  C   LIG     1      12.752  30.940  16.156  1.00  0.00     0.013 A 
HETATM    3  C   LIG     1      12.896  32.137  16.875  1.00  0.00     0.001 A 
HETATM    4  C   LIG     1      14.098  32.871  16.804  1.00  0.00     0.001 A 
HETATM    5  C   LIG     1      15.165  32.412  16.013  1.00  0.00     0.008 A 
HETATM    6  C   LIG     1      15.006  31.220  15.303  1.00  0.00    -0.043 A 
HETATM    7  C   LIG     1      16.003  30.549  14.403  1.00  0.00     0.078 A 
HETATM    8  C   LIG     1      15.217  29.343  13.974  1.00  0.00    -0.043 A 
HETATM    9  C   LIG     1      13.957  29.329  14.545  1.00  0.00    -0.019 A 
HETATM   10  C   LIG     1      13.046  28.303  14.290  1.00  0.00     0.013 A 
HETATM   11  C   LIG     1      13.441  27.266  13.429  1.00  0.00     0.001 A 
HETATM   12  C   LIG     1      14.723  27.275  12.845  1.00  0.00     0.001 A 
HETATM   13  C   LIG     1      15.622  28.320  13.117  1.00  0.00     0.008 A 
ENDROOT
TORSDOF 0
ENDMDL
MODEL 18
REMARK VINA RESULT:      -6.2      9.449     11.601
REMARK  0 active torsions:
REMARK  status: ('A' for Active; 'I' for Inactive)
ROOT
HETATM    1  C   LIG     1      13.967  29.335  14.544  1.00  0.00    -0.019 A 
HETATM    2  C   LIG     1      13.058  28.306  14.297  1.00  0.00     0.013 A 
HETATM    3  C   LIG     1      13.447  27.271  13.432  1.00  0.00     0.001 A 
HETATM    4  C   LIG     1      14.725  27.281  12.837  1.00  0.00     0.001 A 
HETATM    5  C   LIG     1      15.624  28.330  13.102  1.00  0.00     0.008 A 
HETATM    6  C   LIG     1      15.222  29.352  13.964  1.00  0.00    -0.043 A 
HETATM    7  C   LIG     1      16.009  30.559  14.386  1.00  0.00     0.078 A 
HETATM    8  C   LIG     1      15.018  31.229  15.293  1.00  0.00    -0.043 A 
HETATM    9  C   LIG     1      13.839  30.511  15.377  1.00  0.00    -0.019 A 
HETATM   10  C   LIG     1      12.771  30.943  16.164  1.00  0.00     0.013 A 
HETATM   11  C   LIG     1      12.918  32.141  16.882  1.00  0.00     0.001 A 
HETATM   12  C   LIG     1      14.117  32.877  16.801  1.00  0.00     0.001 A 
HETATM   13  C   LIG     1      15.179  32.421  16.000  1.00  0.00     0.008 A 
ENDROOT
TORSDOF 0
ENDMDL
MODEL 19
REMARK VINA RESULT:      -5.8      1.817      3.739
REMARK  0 active torsions:
REMARK  status: ('A' for Active; 'I' for Inactive)
ROOT
HETATM    1  C   LIG     1      16.426  35.914  21.431  1.00  0.00    -0.019 A 
HETATM    2  C   LIG     1      15.516  35.073  22.072  1.00  0.00     0.013 A 
HETATM    3  C   LIG     1      14.931  34.037  21.326  1.00  0.00     0.001 A 
HETATM    4  C   LIG     1      15.264  33.861  19.968  1.00  0.00     0.001 A 
HETATM    5  C   LIG     1      16.184  34.722  19.344  1.00  0.00     0.008 A 
HETATM    6  C   LIG     1      16.757  35.747  20.099  1.00  0.00    -0.043 A 
HETATM    7  C   LIG     1      17.755  36.773  19.645  1.00  0.00     0.078 A 
HETATM    8  C   LIG     1      17.945  37.552  20.915  1.00  0.00    -0.043 A 
HETATM    9  C   LIG     1      17.170  37.044  21.943  1.00  0.00    -0.019 A 
HETATM   10  C   LIG     1      17.183  37.608  23.219  1.00  0.00     0.013 A 
HETATM   11  C   LIG     1      18.012  38.720  23.444  1.00  0.00     0.001 A 
HETATM   12  C   LIG     1      18.803  39.241  22.402  1.00  0.00     0.001 A 
HETATM   13  C   LIG     1      18.772  38.655  21.124  1.00  0.00     0.008 A 
ENDROOT
TORSDOF 0
ENDMDL
MODEL 20
REMARK VINA RESULT:      -5.8      1.797      3.835
REMARK  0 active torsions:
REMARK  status: ('A' for Active; 'I' for Inactive)
ROOT
HETATM    1  C   LIG     1      17.225  37.093  21.843  1.00  0.00    -0.019 A 
HETATM    2  C   LIG     1      17.260  37.707  23.095  1.00  0.00     0.013 A 
HETATM    3  C   LIG     1      18.110  38.812  23.268  1.00  0.00     0.001 A 
HETATM    4  C   LIG     1      18.900  39.277  22.197  1.00  0.00     0.001 A 
HETATM    5  C   LIG     1      18.847  38.641  20.945  1.00  0.00     0.008 A 
HETATM    6  C   LIG     1      17.997  37.544  20.789  1.00  0.00    -0.043 A 
HETATM    7  C   LIG     1      17.781  36.719  19.553  1.00  0.00     0.078 A 
HETATM    8  C   LIG     1      16.771  35.729  20.057  1.00  0.00    -0.043 A 
HETATM    9  C   LIG     1      16.457  35.955  21.385  1.00  0.00    -0.019 A 
HETATM   10  C   LIG     1      15.538  35.158  22.068  1.00  0.00     0.013 A 
HETATM   11  C   LIG     1      14.928  34.103  21.370  1.00  0.00     0.001 A 
HETATM   12  C   LIG     1      15.245  33.867  20.018  1.00  0.00     0.001 A 
HETATM   13  C   LIG     1      16.174  34.685  19.351  1.00  0.00     0.008 A 
ENDROOT
TORSDOF 0
ENDMDL
