REMARK  0 active torsions:
REMARK  status: ('A' for Active; 'I' for Inactive)
ROOT
HETATM    1  C   LIG     1       0.723   0.462   0.097  1.00  0.00    -0.019 A 
HETATM    2  C   LIG     1       1.620   1.510   0.305  1.00  0.00     0.013 A 
HETATM    3  C   LIG     1       2.994   1.223   0.271  1.00  0.00     0.001 A 
HETATM    4  C   LIG     1       3.442  -0.092   0.031  1.00  0.00     0.001 A 
HETATM    5  C   LIG     1       2.518  -1.131  -0.176  1.00  0.00     0.008 A 
HETATM    6  C   LIG     1       1.155  -0.830  -0.139  1.00  0.00    -0.043 A 
HETATM    7  C   LIG     1       0.002  -1.772  -0.332  1.00  0.00     0.078 A 
HETATM    8  C   LIG     1      -1.154  -0.827  -0.171  1.00  0.00    -0.043 A 
HETATM    9  C   LIG     1      -0.724   0.464   0.077  1.00  0.00    -0.019 A 
HETATM   10  C   LIG     1      -1.623   1.515   0.261  1.00  0.00     0.013 A 
HETATM   11  C   LIG     1      -2.997   1.232   0.189  1.00  0.00     0.001 A 
HETATM   12  C   LIG     1      -3.441  -0.081  -0.063  1.00  0.00     0.001 A 
HETATM   13  C   LIG     1      -2.515  -1.123  -0.245  1.00  0.00     0.008 A 
ENDROOT
TORSDOF 0
