REMARK  3 active torsions:
REMARK  status: ('A' for Active; 'I' for Inactive)
REMARK    1  A    between atoms: O_1  and  C_2 
REMARK    2  A    between atoms: C_2  and  C_3 
REMARK    3  A    between atoms: C_3  and  C_4 
ROOT
HETATM    1  C   LIG     1       0.788   0.680   0.703  1.00  0.00    -0.037 A 
HETATM    2  C   LIG     1       0.623   2.069   0.851  1.00  0.00     0.008 A 
HETATM    3  C   LIG     1      -0.617   2.670   0.639  1.00  0.00     0.001 A 
HETATM    4  C   LIG     1      -1.718   1.899   0.274  1.00  0.00     0.012 A 
HETATM    5  C   LIG     1      -1.590   0.513   0.117  1.00  0.00    -0.025 A 
HETATM    6  C   LIG     1      -2.706  -0.255  -0.251  1.00  0.00     0.012 A 
HETATM    7  C   LIG     1      -2.590  -1.636  -0.407  1.00  0.00     0.001 A 
HETATM    8  C   LIG     1      -1.362  -2.263  -0.198  1.00  0.00     0.001 A 
HETATM    9  C   LIG     1      -0.241  -1.515   0.169  1.00  0.00     0.013 A 
HETATM   10  C   LIG     1      -0.332  -0.115   0.331  1.00  0.00    -0.019 A 
ENDROOT
BRANCH   1  11
HETATM   11  C   LIG     1       2.165   0.093   0.935  1.00  0.00     0.149 C 
BRANCH  11  12
HETATM   12  C   LIG     1       2.811  -0.303  -0.361  1.00  0.00     0.143 C 
HETATM   13  O   LIG     1       2.933   0.544  -1.286  1.00  0.00    -0.650 OA
BRANCH  12  14
HETATM   14  O   LIG     1       3.310  -1.589  -0.545  1.00  0.00    -0.776 OA
HETATM   15  H   LIG     1       3.249  -2.288   0.185  1.00  0.00     0.167 HD
ENDBRANCH  12  14
ENDBRANCH  11  12
ENDBRANCH   1  11
TORSDOF 3
