MODEL 1
REMARK VINA RESULT:      -9.1      0.000      0.000
REMARK  3 active torsions:
REMARK  status: ('A' for Active; 'I' for Inactive)
REMARK    1  A    between atoms: O_1  and  C_2 
REMARK    2  A    between atoms: C_2  and  C_3 
REMARK    3  A    between atoms: C_3  and  C_4 
ROOT
HETATM    1  C   LIG     1      16.894  36.149  22.717  1.00  0.00    -0.037 A 
HETATM    2  C   LIG     1      16.838  37.394  22.066  1.00  0.00     0.008 A 
HETATM    3  C   LIG     1      17.181  38.568  22.735  1.00  0.00     0.001 A 
HETATM    4  C   LIG     1      17.584  38.525  24.067  1.00  0.00     0.012 A 
HETATM    5  C   LIG     1      17.651  37.302  24.747  1.00  0.00    -0.025 A 
HETATM    6  C   LIG     1      18.059  37.270  26.090  1.00  0.00     0.012 A 
HETATM    7  C   LIG     1      18.132  36.058  26.775  1.00  0.00     0.001 A 
HETATM    8  C   LIG     1      17.798  34.868  26.128  1.00  0.00     0.001 A 
HETATM    9  C   LIG     1      17.390  34.881  24.793  1.00  0.00     0.013 A 
HETATM   10  C   LIG     1      17.306  36.096  24.078  1.00  0.00    -0.019 A 
ENDROOT
BRANCH   1  11
HETATM   11  C   LIG     1      16.495  34.913  21.936  1.00  0.00     0.149 C 
BRANCH  11  12
HETATM   12  C   LIG     1      15.561  35.260  20.813  1.00  0.00     0.143 C 
HETATM   13  O   LIG     1      15.945  35.142  19.619  1.00  0.00    -0.650 OA
BRANCH  12  14
HETATM   14  O   LIG     1      14.260  35.678  21.072  1.00  0.00    -0.776 OA
HETATM   15  H   LIG     1      13.554  35.686  20.346  1.00  0.00     0.167 HD
ENDBRANCH  12  14
ENDBRANCH  11  12
ENDBRANCH   1  11
TORSDOF 3
ENDMDL
MODEL 2
REMARK VINA RESULT:      -8.7      2.186      3.902
REMARK  3 active torsions:
REMARK  status: ('A' for Active; 'I' for Inactive)
REMARK    1  A    between atoms: O_1  and  C_2 
REMARK    2  A    between atoms: C_2  and  C_3 
REMARK    3  A    between atoms: C_3  and  C_4 
ROOT
HETATM    1  C   LIG     1      17.027  36.439  21.956  1.00  0.00    -0.037 A 
HETATM    2  C   LIG     1      16.377  37.034  23.052  1.00  0.00     0.008 A 
HETATM    3  C   LIG     1      16.543  38.389  23.335  1.00  0.00     0.001 A 
HETATM    4  C   LIG     1      17.361  39.179  22.531  1.00  0.00     0.012 A 
HETATM    5  C   LIG     1      18.025  38.619  21.431  1.00  0.00    -0.025 A 
HETATM    6  C   LIG     1      18.847  39.424  20.627  1.00  0.00     0.012 A 
HETATM    7  C   LIG     1      19.510  38.877  19.528  1.00  0.00     0.001 A 
HETATM    8  C   LIG     1      19.358  37.525  19.222  1.00  0.00     0.001 A 
HETATM    9  C   LIG     1      18.544  36.709  20.010  1.00  0.00     0.013 A 
HETATM   10  C   LIG     1      17.864  37.239  21.129  1.00  0.00    -0.019 A 
ENDROOT
BRANCH   1  11
HETATM   11  C   LIG     1      16.814  34.959  21.714  1.00  0.00     0.149 C 
BRANCH  11  12
HETATM   12  C   LIG     1      15.594  34.717  20.873  1.00  0.00     0.143 C 
HETATM   13  O   LIG     1      15.712  34.546  19.630  1.00  0.00    -0.650 OA
BRANCH  12  14
HETATM   14  O   LIG     1      14.331  34.644  21.454  1.00  0.00    -0.776 OA
HETATM   15  H   LIG     1      13.575  35.243  21.147  1.00  0.00     0.167 HD
ENDBRANCH  12  14
ENDBRANCH  11  12
ENDBRANCH   1  11
TORSDOF 3
ENDMDL
MODEL 3
REMARK VINA RESULT:      -8.6      2.356      3.521
REMARK  3 active torsions:
REMARK  status: ('A' for Active; 'I' for Inactive)
REMARK    1  A    between atoms: O_1  and  C_2 
REMARK    2  A    between atoms: C_2  and  C_3 
REMARK    3  A    between atoms: C_3  and  C_4 
ROOT
HETATM    1  C   LIG     1      17.134  37.536  22.690  1.00  0.00    -0.037 A 
HETATM    2  C   LIG     1      16.707  36.735  21.616  1.00  0.00     0.008 A 
HETATM    3  C   LIG     1      16.553  35.357  21.768  1.00  0.00     0.001 A 
HETATM    4  C   LIG     1      16.823  34.750  22.992  1.00  0.00     0.012 A 
HETATM    5  C   LIG     1      17.251  35.518  24.082  1.00  0.00    -0.025 A 
HETATM    6  C   LIG     1      17.521  34.897  25.312  1.00  0.00     0.012 A 
HETATM    7  C   LIG     1      17.944  35.653  26.405  1.00  0.00     0.001 A 
HETATM    8  C   LIG     1      18.104  37.033  26.282  1.00  0.00     0.001 A 
HETATM    9  C   LIG     1      17.840  37.668  25.066  1.00  0.00     0.013 A 
HETATM   10  C   LIG     1      17.412  36.925  23.944  1.00  0.00    -0.019 A 
ENDROOT
BRANCH   1  11
HETATM   11  C   LIG     1      17.294  39.024  22.454  1.00  0.00     0.149 C 
BRANCH  11  12
HETATM   12  C   LIG     1      18.611  39.332  21.803  1.00  0.00     0.143 C 
HETATM   13  O   LIG     1      18.652  39.632  20.579  1.00  0.00    -0.650 OA
BRANCH  12  14
HETATM   14  O   LIG     1      19.791  39.323  22.541  1.00  0.00    -0.776 OA
HETATM   15  H   LIG     1      20.673  39.600  22.129  1.00  0.00     0.167 HD
ENDBRANCH  12  14
ENDBRANCH  11  12
ENDBRANCH   1  11
TORSDOF 3
ENDMDL
MODEL 4
REMARK VINA RESULT:      -8.3      3.137      5.360
REMARK  3 active torsions:
REMARK  status: ('A' for Active; 'I' for Inactive)
REMARK    1  A    between atoms: O_1  and  C_2 
REMARK    2  A    between atoms: C_2  and  C_3 
REMARK    3  A    between atoms: C_3  and  C_4 
ROOT
HETATM    1  C   LIG     1      17.014  37.787  22.445  1.00  0.00    -0.037 A 
HETATM    2  C   LIG     1      16.180  36.655  22.498  1.00  0.00     0.008 A 
HETATM    3  C   LIG     1      16.265  35.657  21.528  1.00  0.00     0.001 A 
HETATM    4  C   LIG     1      17.181  35.767  20.485  1.00  0.00     0.012 A 
HETATM    5  C   LIG     1      18.027  36.881  20.401  1.00  0.00    -0.025 A 
HETATM    6  C   LIG     1      18.947  36.982  19.345  1.00  0.00     0.012 A 
HETATM    7  C   LIG     1      19.795  38.085  19.254  1.00  0.00     0.001 A 
HETATM    8  C   LIG     1      19.734  39.096  20.212  1.00  0.00     0.001 A 
HETATM    9  C   LIG     1      18.825  39.012  21.269  1.00  0.00     0.013 A 
HETATM   10  C   LIG     1      17.954  37.907  21.383  1.00  0.00    -0.019 A 
ENDROOT
BRANCH   1  11
HETATM   11  C   LIG     1      16.861  38.841  23.522  1.00  0.00     0.149 C 
BRANCH  11  12
HETATM   12  C   LIG     1      17.524  38.411  24.799  1.00  0.00     0.143 C 
HETATM   13  O   LIG     1      16.843  38.299  25.853  1.00  0.00    -0.650 OA
BRANCH  12  14
HETATM   14  O   LIG     1      18.881  38.101  24.828  1.00  0.00    -0.776 OA
HETATM   15  H   LIG     1      19.209  37.156  24.669  1.00  0.00     0.167 HD
ENDBRANCH  12  14
ENDBRANCH  11  12
ENDBRANCH   1  11
TORSDOF 3
ENDMDL
MODEL 5
REMARK VINA RESULT:      -7.3      8.113     10.292
REMARK  3 active torsions:
REMARK  status: ('A' for Active; 'I' for Inactive)
REMARK    1  A    between atoms: O_1  and  C_2 
REMARK    2  A    between atoms: C_2  and  C_3 
REMARK    3  A    between atoms: C_3  and  C_4 
ROOT
HETATM    1  C   LIG     1      16.025  32.477  15.603  1.00  0.00    -0.037 A 
HETATM    2  C   LIG     1      15.580  33.330  16.630  1.00  0.00     0.008 A 
HETATM    3  C   LIG     1      14.340  33.134  17.236  1.00  0.00     0.001 A 
HETATM    4  C   LIG     1      13.517  32.086  16.832  1.00  0.00     0.012 A 
HETATM    5  C   LIG     1      13.928  31.218  15.812  1.00  0.00    -0.025 A 
HETATM    6  C   LIG     1      13.091  30.164  15.411  1.00  0.00     0.012 A 
HETATM    7  C   LIG     1      13.492  29.292  14.399  1.00  0.00     0.001 A 
HETATM    8  C   LIG     1      14.729  29.463  13.778  1.00  0.00     0.001 A 
HETATM    9  C   LIG     1      15.575  30.506  14.164  1.00  0.00     0.013 A 
HETATM   10  C   LIG     1      15.191  31.403  15.184  1.00  0.00    -0.019 A 
ENDROOT
BRANCH   1  11
HETATM   11  C   LIG     1      17.376  32.754  14.978  1.00  0.00     0.149 C 
BRANCH  11  12
HETATM   12  C   LIG     1      17.285  33.845  13.951  1.00  0.00     0.143 C 
HETATM   13  O   LIG     1      17.636  35.018  14.249  1.00  0.00    -0.650 OA
BRANCH  12  14
HETATM   14  O   LIG     1      16.849  33.572  12.658  1.00  0.00    -0.776 OA
HETATM   15  H   LIG     1      16.047  34.045  12.261  1.00  0.00     0.167 HD
ENDBRANCH  12  14
ENDBRANCH  11  12
ENDBRANCH   1  11
TORSDOF 3
ENDMDL
MODEL 6
REMARK VINA RESULT:      -7.0      6.274      9.682
REMARK  3 active torsions:
REMARK  status: ('A' for Active; 'I' for Inactive)
REMARK    1  A    between atoms: O_1  and  C_2 
REMARK    2  A    between atoms: C_2  and  C_3 
REMARK    3  A    between atoms: C_3  and  C_4 
ROOT
HETATM    1  C   LIG     1      14.733  32.230  17.101  1.00  0.00    -0.037 A 
HETATM    2  C   LIG     1      13.659  31.353  17.336  1.00  0.00     0.008 A 
HETATM    3  C   LIG     1      13.230  30.465  16.350  1.00  0.00     0.001 A 
HETATM    4  C   LIG     1      13.862  30.434  15.109  1.00  0.00     0.012 A 
HETATM    5  C   LIG     1      14.934  31.294  14.840  1.00  0.00    -0.025 A 
HETATM    6  C   LIG     1      15.564  31.255  13.586  1.00  0.00     0.012 A 
HETATM    7  C   LIG     1      16.635  32.105  13.309  1.00  0.00     0.001 A 
HETATM    8  C   LIG     1      17.086  33.000  14.278  1.00  0.00     0.001 A 
HETATM    9  C   LIG     1      16.472  33.053  15.532  1.00  0.00     0.013 A 
HETATM   10  C   LIG     1      15.384  32.205  15.836  1.00  0.00    -0.019 A 
ENDROOT
BRANCH   1  11
HETATM   11  C   LIG     1      15.140  33.179  18.209  1.00  0.00     0.149 C 
BRANCH  11  12
HETATM   12  C   LIG     1      15.232  32.465  19.527  1.00  0.00     0.143 C 
HETATM   13  O   LIG     1      16.099  31.566  19.694  1.00  0.00    -0.650 OA
BRANCH  12  14
HETATM   14  O   LIG     1      14.393  32.806  20.583  1.00  0.00    -0.776 OA
HETATM   15  H   LIG     1      14.031  33.746  20.686  1.00  0.00     0.167 HD
ENDBRANCH  12  14
ENDBRANCH  11  12
ENDBRANCH   1  11
TORSDOF 3
ENDMDL
MODEL 7
REMARK VINA RESULT:      -6.9      7.920     10.148
REMARK  3 active torsions:
REMARK  status: ('A' for Active; 'I' for Inactive)
REMARK    1  A    between atoms: O_1  and  C_2 
REMARK    2  A    between atoms: C_2  and  C_3 
REMARK    3  A    between atoms: C_3  and  C_4 
ROOT
HETATM    1  C   LIG     1      16.323  32.307  14.442  1.00  0.00    -0.037 A 
HETATM    2  C   LIG     1      16.117  31.465  13.334  1.00  0.00     0.008 A 
HETATM    3  C   LIG     1      15.150  30.461  13.368  1.00  0.00     0.001 A 
HETATM    4  C   LIG     1      14.370  30.274  14.507  1.00  0.00     0.012 A 
HETATM    5  C   LIG     1      14.549  31.094  15.628  1.00  0.00    -0.025 A 
HETATM    6  C   LIG     1      13.758  30.897  16.771  1.00  0.00     0.012 A 
HETATM    7  C   LIG     1      13.926  31.710  17.892  1.00  0.00     0.001 A 
HETATM    8  C   LIG     1      14.883  32.724  17.884  1.00  0.00     0.001 A 
HETATM    9  C   LIG     1      15.679  32.934  16.756  1.00  0.00     0.013 A 
HETATM   10  C   LIG     1      15.530  32.123  15.609  1.00  0.00    -0.019 A 
ENDROOT
BRANCH   1  11
HETATM   11  C   LIG     1      17.398  33.369  14.344  1.00  0.00     0.149 C 
BRANCH  11  12
HETATM   12  C   LIG     1      17.745  33.660  12.913  1.00  0.00     0.143 C 
HETATM   13  O   LIG     1      18.674  33.021  12.350  1.00  0.00    -0.650 OA
BRANCH  12  14
HETATM   14  O   LIG     1      17.030  34.606  12.184  1.00  0.00    -0.776 OA
HETATM   15  H   LIG     1      16.809  35.514  12.573  1.00  0.00     0.167 HD
ENDBRANCH  12  14
ENDBRANCH  11  12
ENDBRANCH   1  11
TORSDOF 3
ENDMDL
MODEL 8
REMARK VINA RESULT:      -6.6      6.900      9.922
REMARK  3 active torsions:
REMARK  status: ('A' for Active; 'I' for Inactive)
REMARK    1  A    between atoms: O_1  and  C_2 
REMARK    2  A    between atoms: C_2  and  C_3 
REMARK    3  A    between atoms: C_3  and  C_4 
ROOT
HETATM    1  C   LIG     1      15.227  32.748  16.307  1.00  0.00    -0.037 A 
HETATM    2  C   LIG     1      16.354  33.494  15.920  1.00  0.00     0.008 A 
HETATM    3  C   LIG     1      17.088  33.148  14.786  1.00  0.00     0.001 A 
HETATM    4  C   LIG     1      16.714  32.049  14.016  1.00  0.00     0.012 A 
HETATM    5  C   LIG     1      15.597  31.283  14.373  1.00  0.00    -0.025 A 
HETATM    6  C   LIG     1      15.228  30.178  13.589  1.00  0.00     0.012 A 
HETATM    7  C   LIG     1      14.116  29.410  13.934  1.00  0.00     0.001 A 
HETATM    8  C   LIG     1      13.362  29.737  15.061  1.00  0.00     0.001 A 
HETATM    9  C   LIG     1      13.714  30.833  15.852  1.00  0.00     0.013 A 
HETATM   10  C   LIG     1      14.837  31.625  15.525  1.00  0.00    -0.019 A 
ENDROOT
BRANCH   1  11
HETATM   11  C   LIG     1      14.483  33.171  17.557  1.00  0.00     0.149 C 
BRANCH  11  12
HETATM   12  C   LIG     1      14.935  32.381  18.751  1.00  0.00     0.143 C 
HETATM   13  O   LIG     1      15.967  32.735  19.383  1.00  0.00    -0.650 OA
BRANCH  12  14
HETATM   14  O   LIG     1      14.211  31.278  19.193  1.00  0.00    -0.776 OA
HETATM   15  H   LIG     1      13.200  31.253  19.134  1.00  0.00     0.167 HD
ENDBRANCH  12  14
ENDBRANCH  11  12
ENDBRANCH   1  11
TORSDOF 3
ENDMDL
MODEL 9
REMARK VINA RESULT:      -6.6      8.604     10.503
REMARK  3 active torsions:
REMARK  status: ('A' for Active; 'I' for Inactive)
REMARK    1  A    between atoms: O_1  and  C_2 
REMARK    2  A    between atoms: C_2  and  C_3 
REMARK    3  A    between atoms: C_3  and  C_4 
ROOT
HETATM    1  C   LIG     1      14.639  30.489  14.615  1.00  0.00    -0.037 A 
HETATM    2  C   LIG     1      13.468  30.003  15.224  1.00  0.00     0.008 A 
HETATM    3  C   LIG     1      12.891  30.670  16.303  1.00  0.00     0.001 A 
HETATM    4  C   LIG     1      13.470  31.836  16.800  1.00  0.00     0.012 A 
HETATM    5  C   LIG     1      14.637  32.348  16.219  1.00  0.00    -0.025 A 
HETATM    6  C   LIG     1      15.212  33.524  16.726  1.00  0.00     0.012 A 
HETATM    7  C   LIG     1      16.372  34.044  16.153  1.00  0.00     0.001 A 
HETATM    8  C   LIG     1      16.968  33.398  15.070  1.00  0.00     0.001 A 
HETATM    9  C   LIG     1      16.409  32.228  14.552  1.00  0.00     0.013 A 
HETATM   10  C   LIG     1      15.237  31.680  15.116  1.00  0.00    -0.019 A 
ENDROOT
BRANCH   1  11
HETATM   11  C   LIG     1      15.221  29.709  13.455  1.00  0.00     0.149 C 
BRANCH  11  12
HETATM   12  C   LIG     1      15.082  28.230  13.672  1.00  0.00     0.143 C 
HETATM   13  O   LIG     1      16.015  27.586  14.222  1.00  0.00    -0.650 OA
BRANCH  12  14
HETATM   14  O   LIG     1      13.918  27.562  13.304  1.00  0.00    -0.776 OA
HETATM   15  H   LIG     1      13.862  26.551  13.323  1.00  0.00     0.167 HD
ENDBRANCH  12  14
ENDBRANCH  11  12
ENDBRANCH   1  11
TORSDOF 3
ENDMDL
MODEL 10
REMARK VINA RESULT:      -6.6      8.227     10.550
REMARK  3 active torsions:
REMARK  status: ('A' for Active; 'I' for Inactive)
REMARK    1  A    between atoms: O_1  and  C_2 
REMARK    2  A    between atoms: C_2  and  C_3 
REMARK    3  A    between atoms: C_3  and  C_4 
ROOT
HETATM    1  C   LIG     1      14.601  30.343  14.330  1.00  0.00    -0.037 A 
HETATM    2  C   LIG     1      15.411  30.712  13.241  1.00  0.00     0.008 A 
HETATM    3  C   LIG     1      16.242  31.830  13.311  1.00  0.00     0.001 A 
HETATM    4  C   LIG     1      16.281  32.603  14.469  1.00  0.00     0.012 A 
HETATM    5  C   LIG     1      15.488  32.265  15.573  1.00  0.00    -0.025 A 
HETATM    6  C   LIG     1      15.536  33.052  16.735  1.00  0.00     0.012 A 
HETATM    7  C   LIG     1      14.752  32.722  17.841  1.00  0.00     0.001 A 
HETATM    8  C   LIG     1      13.915  31.608  17.798  1.00  0.00     0.001 A 
HETATM    9  C   LIG     1      13.855  30.814  16.650  1.00  0.00     0.013 A 
HETATM   10  C   LIG     1      14.636  31.128  15.517  1.00  0.00    -0.019 A 
ENDROOT
BRANCH   1  11
HETATM   11  C   LIG     1      13.712  29.126  14.182  1.00  0.00     0.149 C 
BRANCH  11  12
HETATM   12  C   LIG     1      14.484  27.951  13.655  1.00  0.00     0.143 C 
HETATM   13  O   LIG     1      15.652  27.729  14.073  1.00  0.00    -0.650 OA
BRANCH  12  14
HETATM   14  O   LIG     1      13.914  27.080  12.732  1.00  0.00    -0.776 OA
HETATM   15  H   LIG     1      13.753  26.105  12.956  1.00  0.00     0.167 HD
ENDBRANCH  12  14
ENDBRANCH  11  12
ENDBRANCH   1  11
TORSDOF 3
ENDMDL
