REMARK  3 active torsions:
REMARK  status: ('A' for Active; 'I' for Inactive)
REMARK    1  A    between atoms: C_2  and  C_3 
REMARK       I    between atoms: C_2  and  N_10 
REMARK    2  A    between atoms: C_8  and  O_9 
REMARK    3  A    between atoms: N_10  and  C_11 
ROOT
HETATM    1  O   LIG     1      -0.010  -1.035   1.568  1.00  0.00    -0.267 OA
HETATM    2  C   LIG     1      -0.409  -0.441   0.530  1.00  0.00     0.259 C 
HETATM    3  N   LIG     1       0.539   0.035  -0.440  1.00  0.00    -0.323 N 
HETATM    4  H   LIG     1       0.192   0.222  -1.408  1.00  0.00     0.169 HD
ENDROOT
BRANCH   2   5
HETATM    5  C   LIG     1      -1.858  -0.229   0.315  1.00  0.00     0.065 A 
HETATM    6  C   LIG     1      -2.289   1.014  -0.183  1.00  0.00     0.020 A 
HETATM    7  C   LIG     1      -3.651   1.284  -0.341  1.00  0.00     0.001 A 
HETATM    8  C   LIG     1      -4.598   0.318  -0.003  1.00  0.00     0.003 A 
HETATM    9  C   LIG     1      -4.186  -0.926   0.479  1.00  0.00     0.037 A 
HETATM   10  C   LIG     1      -2.825  -1.218   0.627  1.00  0.00     0.081 A 
BRANCH  10  11
HETATM   11  O   LIG     1      -2.474  -2.501   1.051  1.00  0.00    -0.360 OA
HETATM   12  H   LIG     1      -1.524  -2.846   1.053  1.00  0.00     0.217 HD
ENDBRANCH  10  11
ENDBRANCH   2   5
BRANCH   3  13
HETATM   13  C   LIG     1       1.952   0.145  -0.198  1.00  0.00     0.035 A 
HETATM   14  C   LIG     1       2.850  -0.048  -1.261  1.00  0.00     0.029 A 
HETATM   15  C   LIG     1       4.227   0.076  -1.055  1.00  0.00     0.002 A 
HETATM   16  C   LIG     1       4.719   0.408   0.209  1.00  0.00     0.000 A 
HETATM   17  C   LIG     1       3.834   0.625   1.268  1.00  0.00     0.002 A 
HETATM   18  C   LIG     1       2.455   0.501   1.067  1.00  0.00     0.029 A 
ENDBRANCH   3  13
TORSDOF 3
