REMARK  6 active torsions:
REMARK  status: ('A' for Active; 'I' for Inactive)
REMARK    1  A    between atoms: C_2  and  C_3 
REMARK    2  A    between atoms: C_2  and  O_10 
REMARK    3  A    between atoms: C_8  and  O_9 
REMARK    4  A    between atoms: O_10  and  C_11 
REMARK    5  A    between atoms: C_11  and  C_12 
REMARK    6  A    between atoms: C_12  and  C_13 
ROOT
HETATM    1  C   LIG     1       2.698   0.662   0.225  1.00  0.00     0.072 A 
HETATM    2  C   LIG     1       3.791   1.548   0.133  1.00  0.00     0.020 A 
HETATM    3  C   LIG     1       5.070   1.146   0.523  1.00  0.00     0.001 A 
HETATM    4  C   LIG     1       5.281  -0.143   1.010  1.00  0.00     0.003 A 
HETATM    5  C   LIG     1       4.213  -1.035   1.109  1.00  0.00     0.037 A 
HETATM    6  C   LIG     1       2.922  -0.645   0.721  1.00  0.00     0.082 A 
ENDROOT
BRANCH   1   7
HETATM    7  C   LIG     1       1.348   1.117  -0.198  1.00  0.00     0.296 C 
HETATM    8  O   LIG     1       1.188   2.290  -0.637  1.00  0.00    -0.259 OA
BRANCH   7   9
HETATM    9  O   LIG     1       0.250   0.255  -0.113  1.00  0.00    -0.317 OA
BRANCH   9  10
HETATM   10  C   LIG     1      -1.065   0.637  -0.503  1.00  0.00     0.179 C 
BRANCH  10  11
HETATM   11  C   LIG     1      -2.019  -0.539  -0.285  1.00  0.00     0.031 C 
BRANCH  11  12
HETATM   12  C   LIG     1      -3.435  -0.277  -0.843  1.00  0.00    -0.021 C 
HETATM   13  C   LIG     1      -4.168   0.819  -0.054  1.00  0.00     0.009 C 
HETATM   14  C   LIG     1      -4.257  -1.572  -0.820  1.00  0.00     0.009 C 
ENDBRANCH  11  12
ENDBRANCH  10  11
ENDBRANCH   9  10
ENDBRANCH   7   9
ENDBRANCH   1   7
BRANCH   6  15
HETATM   15  O   LIG     1       1.872  -1.557   0.830  1.00  0.00    -0.360 OA
HETATM   16  H   LIG     1       2.017  -2.496   1.183  1.00  0.00     0.217 HD
ENDBRANCH   6  15
TORSDOF 6
