REMARK  3 active torsions:
REMARK  status: ('A' for Active; 'I' for Inactive)
REMARK       I    between atoms: C_2  and  N_3 
REMARK    1  A    between atoms: C_2  and  O_6 
REMARK    2  A    between atoms: O_6  and  C_7 
REMARK    3  A    between atoms: N_12  and  C_13 
ROOT
HETATM    1  C   LIG     1      -0.049   0.973  -0.615  1.00  0.00     0.178 A 
HETATM    2  C   LIG     1       0.127   2.151  -1.322  1.00  0.00     0.087 A 
HETATM    3  C   LIG     1      -0.921   2.948  -0.901  1.00  0.00     0.055 A 
HETATM    4  C   LIG     1      -1.144   4.370  -1.294  1.00  0.00     0.072 C 
HETATM    5  N   LIG     1      -1.663   2.298   0.016  1.00  0.00    -0.170 NA
HETATM    6  N   LIG     1      -1.139   1.092   0.174  1.00  0.00    -0.211 N 
ENDROOT
BRANCH   1   7
HETATM    7  O   LIG     1       0.785  -0.154  -0.621  1.00  0.00    -0.242 OA
BRANCH   7   8
HETATM    8  C   LIG     1       1.774  -0.442  -1.571  1.00  0.00     0.368 C 
HETATM    9  O   LIG     1       1.869   0.239  -2.629  1.00  0.00    -0.238 OA
HETATM   10  N   LIG     1       2.661  -1.552  -1.353  1.00  0.00    -0.336 N 
HETATM   11  C   LIG     1       2.510  -2.361  -0.141  1.00  0.00     0.154 C 
HETATM   12  C   LIG     1       3.700  -1.863  -2.339  1.00  0.00     0.154 C 
ENDBRANCH   7   8
ENDBRANCH   1   7
BRANCH   6  13
HETATM   13  C   LIG     1      -1.663   0.117   1.095  1.00  0.00     0.061 A 
HETATM   14  C   LIG     1      -2.295   0.540   2.277  1.00  0.00     0.031 A 
HETATM   15  C   LIG     1      -2.812  -0.395   3.179  1.00  0.00     0.002 A 
HETATM   16  C   LIG     1      -2.714  -1.761   2.904  1.00  0.00     0.000 A 
HETATM   17  C   LIG     1      -2.104  -2.193   1.724  1.00  0.00     0.002 A 
HETATM   18  C   LIG     1      -1.585  -1.261   0.819  1.00  0.00     0.031 A 
ENDBRANCH   6  13
TORSDOF 3
