MODEL 1
REMARK VINA RESULT:      -9.1      0.000      0.000
REMARK  3 active torsions:
REMARK  status: ('A' for Active; 'I' for Inactive)
REMARK       I    between atoms: C_2  and  N_3 
REMARK    1  A    between atoms: C_2  and  O_6 
REMARK    2  A    between atoms: O_6  and  C_7 
REMARK    3  A    between atoms: N_12  and  C_13 
ROOT
HETATM    1  C   LIG     1      16.348  35.742  22.018  1.00  0.00     0.178 A 
HETATM    2  C   LIG     1      15.564  34.617  21.819  1.00  0.00     0.087 A 
HETATM    3  C   LIG     1      15.795  34.284  20.498  1.00  0.00     0.055 A 
HETATM    4  C   LIG     1      15.256  33.081  19.798  1.00  0.00     0.072 C 
HETATM    5  N   LIG     1      16.677  35.140  19.947  1.00  0.00    -0.170 NA
HETATM    6  N   LIG     1      16.997  36.034  20.870  1.00  0.00    -0.211 N 
ENDROOT
BRANCH   1   7
HETATM    7  O   LIG     1      16.534  36.447  23.215  1.00  0.00    -0.242 OA
BRANCH   7   8
HETATM    8  C   LIG     1      17.178  35.967  24.363  1.00  0.00     0.368 C 
HETATM    9  O   LIG     1      17.354  34.729  24.533  1.00  0.00    -0.238 OA
HETATM   10  N   LIG     1      17.605  36.896  25.374  1.00  0.00    -0.336 N 
HETATM   11  C   LIG     1      17.355  38.326  25.183  1.00  0.00     0.154 C 
HETATM   12  C   LIG     1      18.281  36.406  26.578  1.00  0.00     0.154 C 
ENDBRANCH   7   8
ENDBRANCH   1   7
BRANCH   6  13
HETATM   13  C   LIG     1      17.936  37.102  20.643  1.00  0.00     0.061 A 
HETATM   14  C   LIG     1      18.944  36.953  19.675  1.00  0.00     0.031 A 
HETATM   15  C   LIG     1      19.861  37.983  19.441  1.00  0.00     0.002 A 
HETATM   16  C   LIG     1      19.772  39.176  20.162  1.00  0.00     0.000 A 
HETATM   17  C   LIG     1      18.763  39.343  21.114  1.00  0.00     0.002 A 
HETATM   18  C   LIG     1      17.844  38.315  21.351  1.00  0.00     0.031 A 
ENDBRANCH   6  13
TORSDOF 3
ENDMDL
MODEL 2
REMARK VINA RESULT:      -8.4      1.815      4.465
REMARK  3 active torsions:
REMARK  status: ('A' for Active; 'I' for Inactive)
REMARK       I    between atoms: C_2  and  N_3 
REMARK    1  A    between atoms: C_2  and  O_6 
REMARK    2  A    between atoms: O_6  and  C_7 
REMARK    3  A    between atoms: N_12  and  C_13 
ROOT
HETATM    1  C   LIG     1      16.853  35.945  21.183  1.00  0.00     0.178 A 
HETATM    2  C   LIG     1      16.262  35.149  20.215  1.00  0.00     0.087 A 
HETATM    3  C   LIG     1      15.704  34.111  20.937  1.00  0.00     0.055 A 
HETATM    4  C   LIG     1      14.863  33.014  20.375  1.00  0.00     0.072 C 
HETATM    5  N   LIG     1      15.926  34.287  22.254  1.00  0.00    -0.170 NA
HETATM    6  N   LIG     1      16.639  35.394  22.397  1.00  0.00    -0.211 N 
ENDROOT
BRANCH   1   7
HETATM    7  O   LIG     1      17.505  37.171  20.992  1.00  0.00    -0.242 OA
BRANCH   7   8
HETATM    8  C   LIG     1      18.615  37.395  20.166  1.00  0.00     0.368 C 
HETATM    9  O   LIG     1      19.024  36.496  19.380  1.00  0.00    -0.238 OA
HETATM   10  N   LIG     1      19.316  38.647  20.248  1.00  0.00    -0.336 N 
HETATM   11  C   LIG     1      18.856  39.663  21.197  1.00  0.00     0.154 C 
HETATM   12  C   LIG     1      20.478  38.892  19.388  1.00  0.00     0.154 C 
ENDBRANCH   7   8
ENDBRANCH   1   7
BRANCH   6  13
HETATM   13  C   LIG     1      17.052  35.908  23.677  1.00  0.00     0.061 A 
HETATM   14  C   LIG     1      17.441  35.021  24.695  1.00  0.00     0.031 A 
HETATM   15  C   LIG     1      17.848  35.507  25.942  1.00  0.00     0.002 A 
HETATM   16  C   LIG     1      17.882  36.883  26.180  1.00  0.00     0.000 A 
HETATM   17  C   LIG     1      17.514  37.775  25.170  1.00  0.00     0.002 A 
HETATM   18  C   LIG     1      17.106  37.293  23.921  1.00  0.00     0.031 A 
ENDBRANCH   6  13
TORSDOF 3
ENDMDL
MODEL 3
REMARK VINA RESULT:      -6.7      6.119      8.680
REMARK  3 active torsions:
REMARK  status: ('A' for Active; 'I' for Inactive)
REMARK       I    between atoms: C_2  and  N_3 
REMARK    1  A    between atoms: C_2  and  O_6 
REMARK    2  A    between atoms: O_6  and  C_7 
REMARK    3  A    between atoms: N_12  and  C_13 
ROOT
HETATM    1  C   LIG     1      15.540  32.130  15.059  1.00  0.00     0.178 A 
HETATM    2  C   LIG     1      15.089  31.182  14.156  1.00  0.00     0.087 A 
HETATM    3  C   LIG     1      14.234  30.394  14.904  1.00  0.00     0.055 A 
HETATM    4  C   LIG     1      13.404  29.270  14.380  1.00  0.00     0.072 C 
HETATM    5  N   LIG     1      14.161  30.855  16.168  1.00  0.00    -0.170 NA
HETATM    6  N   LIG     1      14.969  31.900  16.261  1.00  0.00    -0.211 N 
ENDROOT
BRANCH   1   7
HETATM    7  O   LIG     1      16.385  33.217  14.797  1.00  0.00    -0.242 OA
BRANCH   7   8
HETATM    8  C   LIG     1      17.758  33.147  14.522  1.00  0.00     0.368 C 
HETATM    9  O   LIG     1      18.540  32.532  15.299  1.00  0.00    -0.238 OA
HETATM   10  N   LIG     1      18.281  33.817  13.363  1.00  0.00    -0.336 N 
HETATM   11  C   LIG     1      17.367  34.564  12.495  1.00  0.00     0.154 C 
HETATM   12  C   LIG     1      19.714  33.750  13.064  1.00  0.00     0.154 C 
ENDBRANCH   7   8
ENDBRANCH   1   7
BRANCH   6  13
HETATM   13  C   LIG     1      15.136  32.664  17.470  1.00  0.00     0.061 A 
HETATM   14  C   LIG     1      15.251  32.003  18.705  1.00  0.00     0.031 A 
HETATM   15  C   LIG     1      15.417  32.732  19.887  1.00  0.00     0.002 A 
HETATM   16  C   LIG     1      15.483  34.127  19.846  1.00  0.00     0.000 A 
HETATM   17  C   LIG     1      15.388  34.794  18.622  1.00  0.00     0.002 A 
HETATM   18  C   LIG     1      15.221  34.068  17.437  1.00  0.00     0.031 A 
ENDBRANCH   6  13
TORSDOF 3
ENDMDL
MODEL 4
REMARK VINA RESULT:      -6.7      5.642      8.946
REMARK  3 active torsions:
REMARK  status: ('A' for Active; 'I' for Inactive)
REMARK       I    between atoms: C_2  and  N_3 
REMARK    1  A    between atoms: C_2  and  O_6 
REMARK    2  A    between atoms: O_6  and  C_7 
REMARK    3  A    between atoms: N_12  and  C_13 
ROOT
HETATM    1  C   LIG     1      16.069  32.790  15.687  1.00  0.00     0.178 A 
HETATM    2  C   LIG     1      17.073  33.696  15.389  1.00  0.00     0.087 A 
HETATM    3  C   LIG     1      17.552  33.267  14.166  1.00  0.00     0.055 A 
HETATM    4  C   LIG     1      18.592  33.957  13.348  1.00  0.00     0.072 C 
HETATM    5  N   LIG     1      16.864  32.188  13.747  1.00  0.00    -0.170 NA
HETATM    6  N   LIG     1      15.975  31.892  14.683  1.00  0.00    -0.211 N 
ENDROOT
BRANCH   1   7
HETATM    7  O   LIG     1      15.210  32.809  16.795  1.00  0.00    -0.242 OA
BRANCH   7   8
HETATM    8  C   LIG     1      15.377  33.576  17.955  1.00  0.00     0.368 C 
HETATM    9  O   LIG     1      15.702  34.793  17.881  1.00  0.00    -0.238 OA
HETATM   10  N   LIG     1      15.217  32.956  19.242  1.00  0.00    -0.336 N 
HETATM   11  C   LIG     1      14.884  31.531  19.313  1.00  0.00     0.154 C 
HETATM   12  C   LIG     1      15.389  33.749  20.463  1.00  0.00     0.154 C 
ENDBRANCH   7   8
ENDBRANCH   1   7
BRANCH   6  13
HETATM   13  C   LIG     1      15.044  30.799  14.571  1.00  0.00     0.061 A 
HETATM   14  C   LIG     1      15.405  29.642  13.859  1.00  0.00     0.031 A 
HETATM   15  C   LIG     1      14.512  28.572  13.745  1.00  0.00     0.002 A 
HETATM   16  C   LIG     1      13.256  28.640  14.352  1.00  0.00     0.000 A 
HETATM   17  C   LIG     1      12.893  29.777  15.077  1.00  0.00     0.002 A 
HETATM   18  C   LIG     1      13.782  30.851  15.193  1.00  0.00     0.031 A 
ENDBRANCH   6  13
TORSDOF 3
ENDMDL
MODEL 5
REMARK VINA RESULT:      -6.6      6.103      8.415
REMARK  3 active torsions:
REMARK  status: ('A' for Active; 'I' for Inactive)
REMARK       I    between atoms: C_2  and  N_3 
REMARK    1  A    between atoms: C_2  and  O_6 
REMARK    2  A    between atoms: O_6  and  C_7 
REMARK    3  A    between atoms: N_12  and  C_13 
ROOT
HETATM    1  C   LIG     1      14.004  31.047  15.469  1.00  0.00     0.178 A 
HETATM    2  C   LIG     1      13.176  29.941  15.368  1.00  0.00     0.087 A 
HETATM    3  C   LIG     1      13.732  29.206  14.337  1.00  0.00     0.055 A 
HETATM    4  C   LIG     1      13.271  27.863  13.881  1.00  0.00     0.072 C 
HETATM    5  N   LIG     1      14.834  29.821  13.868  1.00  0.00    -0.170 NA
HETATM    6  N   LIG     1      14.986  30.947  14.547  1.00  0.00    -0.211 N 
ENDROOT
BRANCH   1   7
HETATM    7  O   LIG     1      13.925  32.084  16.409  1.00  0.00    -0.242 OA
BRANCH   7   8
HETATM    8  C   LIG     1      14.314  32.009  17.753  1.00  0.00     0.368 C 
HETATM    9  O   LIG     1      14.030  30.996  18.451  1.00  0.00    -0.238 OA
HETATM   10  N   LIG     1      15.008  33.116  18.351  1.00  0.00    -0.336 N 
HETATM   11  C   LIG     1      15.293  34.304  17.541  1.00  0.00     0.154 C 
HETATM   12  C   LIG     1      15.421  33.049  19.756  1.00  0.00     0.154 C 
ENDBRANCH   7   8
ENDBRANCH   1   7
BRANCH   6  13
HETATM   13  C   LIG     1      16.076  31.862  14.328  1.00  0.00     0.061 A 
HETATM   14  C   LIG     1      17.002  32.107  15.356  1.00  0.00     0.031 A 
HETATM   15  C   LIG     1      18.068  32.990  15.157  1.00  0.00     0.002 A 
HETATM   16  C   LIG     1      18.226  33.628  13.924  1.00  0.00     0.000 A 
HETATM   17  C   LIG     1      17.323  33.379  12.888  1.00  0.00     0.002 A 
HETATM   18  C   LIG     1      16.255  32.497  13.084  1.00  0.00     0.031 A 
ENDBRANCH   6  13
TORSDOF 3
ENDMDL
MODEL 6
REMARK VINA RESULT:      -6.5      6.306      9.630
REMARK  3 active torsions:
REMARK  status: ('A' for Active; 'I' for Inactive)
REMARK       I    between atoms: C_2  and  N_3 
REMARK    1  A    between atoms: C_2  and  O_6 
REMARK    2  A    between atoms: O_6  and  C_7 
REMARK    3  A    between atoms: N_12  and  C_13 
ROOT
HETATM    1  C   LIG     1      15.347  32.258  15.526  1.00  0.00     0.178 A 
HETATM    2  C   LIG     1      16.280  33.274  15.395  1.00  0.00     0.087 A 
HETATM    3  C   LIG     1      17.071  32.861  14.340  1.00  0.00     0.055 A 
HETATM    4  C   LIG     1      18.181  33.647  13.727  1.00  0.00     0.072 C 
HETATM    5  N   LIG     1      16.628  31.686  13.855  1.00  0.00    -0.170 NA
HETATM    6  N   LIG     1      15.590  31.315  14.589  1.00  0.00    -0.211 N 
ENDROOT
BRANCH   1   7
HETATM    7  O   LIG     1      14.262  32.209  16.413  1.00  0.00    -0.242 OA
BRANCH   7   8
HETATM    8  C   LIG     1      14.228  31.525  17.635  1.00  0.00     0.368 C 
HETATM    9  O   LIG     1      13.693  30.385  17.721  1.00  0.00    -0.238 OA
HETATM   10  N   LIG     1      14.772  32.150  18.810  1.00  0.00    -0.336 N 
HETATM   11  C   LIG     1      15.351  33.491  18.703  1.00  0.00     0.154 C 
HETATM   12  C   LIG     1      14.743  31.444  20.094  1.00  0.00     0.154 C 
ENDBRANCH   7   8
ENDBRANCH   1   7
BRANCH   6  13
HETATM   13  C   LIG     1      14.843  30.107  14.350  1.00  0.00     0.061 A 
HETATM   14  C   LIG     1      13.442  30.118  14.455  1.00  0.00     0.031 A 
HETATM   15  C   LIG     1      12.703  28.954  14.221  1.00  0.00     0.002 A 
HETATM   16  C   LIG     1      13.356  27.770  13.869  1.00  0.00     0.000 A 
HETATM   17  C   LIG     1      14.747  27.751  13.744  1.00  0.00     0.002 A 
HETATM   18  C   LIG     1      15.490  28.913  13.977  1.00  0.00     0.031 A 
ENDBRANCH   6  13
TORSDOF 3
ENDMDL
MODEL 7
REMARK VINA RESULT:      -6.5      2.004      5.094
REMARK  3 active torsions:
REMARK  status: ('A' for Active; 'I' for Inactive)
REMARK       I    between atoms: C_2  and  N_3 
REMARK    1  A    between atoms: C_2  and  O_6 
REMARK    2  A    between atoms: O_6  and  C_7 
REMARK    3  A    between atoms: N_12  and  C_13 
ROOT
HETATM    1  C   LIG     1      17.040  36.228  21.638  1.00  0.00     0.178 A 
HETATM    2  C   LIG     1      17.389  36.477  22.955  1.00  0.00     0.087 A 
HETATM    3  C   LIG     1      16.969  35.344  23.627  1.00  0.00     0.055 A 
HETATM    4  C   LIG     1      17.191  35.059  25.075  1.00  0.00     0.072 C 
HETATM    5  N   LIG     1      16.426  34.464  22.764  1.00  0.00    -0.170 NA
HETATM    6  N   LIG     1      16.456  35.013  21.559  1.00  0.00    -0.211 N 
ENDROOT
BRANCH   1   7
HETATM    7  O   LIG     1      17.303  37.036  20.523  1.00  0.00    -0.242 OA
BRANCH   7   8
HETATM    8  C   LIG     1      18.558  37.248  19.936  1.00  0.00     0.368 C 
HETATM    9  O   LIG     1      19.105  36.347  19.242  1.00  0.00    -0.238 OA
HETATM   10  N   LIG     1      19.243  38.491  20.163  1.00  0.00    -0.336 N 
HETATM   11  C   LIG     1      18.615  39.510  21.007  1.00  0.00     0.154 C 
HETATM   12  C   LIG     1      20.556  38.724  19.554  1.00  0.00     0.154 C 
ENDBRANCH   7   8
ENDBRANCH   1   7
BRANCH   6  13
HETATM   13  C   LIG     1      15.971  34.350  20.377  1.00  0.00     0.061 A 
HETATM   14  C   LIG     1      15.746  32.963  20.395  1.00  0.00     0.031 A 
HETATM   15  C   LIG     1      15.271  32.306  19.255  1.00  0.00     0.002 A 
HETATM   16  C   LIG     1      15.006  33.030  18.090  1.00  0.00     0.000 A 
HETATM   17  C   LIG     1      15.209  34.411  18.065  1.00  0.00     0.002 A 
HETATM   18  C   LIG     1      15.683  35.072  19.203  1.00  0.00     0.031 A 
ENDBRANCH   6  13
TORSDOF 3
ENDMDL
MODEL 8
REMARK VINA RESULT:      -6.2      6.306      9.741
REMARK  3 active torsions:
REMARK  status: ('A' for Active; 'I' for Inactive)
REMARK       I    between atoms: C_2  and  N_3 
REMARK    1  A    between atoms: C_2  and  O_6 
REMARK    2  A    between atoms: O_6  and  C_7 
REMARK    3  A    between atoms: N_12  and  C_13 
ROOT
HETATM    1  C   LIG     1      15.614  33.093  16.139  1.00  0.00     0.178 A 
HETATM    2  C   LIG     1      15.783  33.844  17.290  1.00  0.00     0.087 A 
HETATM    3  C   LIG     1      15.133  33.107  18.263  1.00  0.00     0.055 A 
HETATM    4  C   LIG     1      15.095  33.432  19.718  1.00  0.00     0.072 C 
HETATM    5  N   LIG     1      14.628  31.976  17.733  1.00  0.00    -0.170 NA
HETATM    6  N   LIG     1      14.908  31.980  16.438  1.00  0.00    -0.211 N 
ENDROOT
BRANCH   1   7
HETATM    7  O   LIG     1      16.140  33.359  14.866  1.00  0.00    -0.242 OA
BRANCH   7   8
HETATM    8  C   LIG     1      17.481  33.224  14.484  1.00  0.00     0.368 C 
HETATM    9  O   LIG     1      18.281  32.532  15.172  1.00  0.00    -0.238 OA
HETATM   10  N   LIG     1      17.956  33.917  13.317  1.00  0.00    -0.336 N 
HETATM   11  C   LIG     1      17.026  34.752  12.553  1.00  0.00     0.154 C 
HETATM   12  C   LIG     1      19.357  33.783  12.907  1.00  0.00     0.154 C 
ENDBRANCH   7   8
ENDBRANCH   1   7
BRANCH   6  13
HETATM   13  C   LIG     1      14.536  30.914  15.546  1.00  0.00     0.061 A 
HETATM   14  C   LIG     1      13.192  30.511  15.460  1.00  0.00     0.031 A 
HETATM   15  C   LIG     1      12.815  29.479  14.595  1.00  0.00     0.002 A 
HETATM   16  C   LIG     1      13.773  28.848  13.798  1.00  0.00     0.000 A 
HETATM   17  C   LIG     1      15.109  29.252  13.862  1.00  0.00     0.002 A 
HETATM   18  C   LIG     1      15.491  30.283  14.726  1.00  0.00     0.031 A 
ENDBRANCH   6  13
TORSDOF 3
ENDMDL
