REMARK  3 active torsions:
REMARK  status: ('A' for Active; 'I' for Inactive)
REMARK    1  A    between atoms: O_1  and  C_2 
REMARK    2  A    between atoms: C_2  and  C_3 
REMARK    3  A    between atoms: C_3  and  C_4 
ROOT
HETATM    1  C   LIG     1       0.830   0.463  -0.533  1.00  0.00    -0.020 A 
HETATM    2  C   LIG     1       0.660   1.835  -0.376  1.00  0.00     0.097 A 
HETATM    3  N   LIG     1      -0.600   2.111   0.032  1.00  0.00    -0.365 N 
HETATM    4  C   LIG     1      -1.226   0.925   0.132  1.00  0.00     0.042 A 
HETATM    5  C   LIG     1      -0.386  -0.105  -0.205  1.00  0.00    -0.001 A 
HETATM    6  C   LIG     1      -0.808  -1.434  -0.186  1.00  0.00     0.014 A 
HETATM    7  C   LIG     1      -2.136  -1.695   0.199  1.00  0.00     0.001 A 
HETATM    8  C   LIG     1      -3.001  -0.634   0.549  1.00  0.00     0.002 A 
HETATM    9  C   LIG     1      -2.547   0.697   0.516  1.00  0.00     0.030 A 
HETATM   10  H   LIG     1      -1.001   3.055   0.228  1.00  0.00     0.165 HD
ENDROOT
BRANCH   1  11
HETATM   11  C   LIG     1       2.083  -0.239  -0.963  1.00  0.00     0.150 C 
BRANCH  11  12
HETATM   12  C   LIG     1       2.677  -0.994   0.186  1.00  0.00     0.143 C 
HETATM   13  O   LIG     1       2.623  -2.251   0.209  1.00  0.00    -0.650 OA
BRANCH  12  14
HETATM   14  O   LIG     1       3.276  -0.315   1.243  1.00  0.00    -0.776 OA
HETATM   15  H   LIG     1       3.325   0.697   1.254  1.00  0.00     0.167 HD
ENDBRANCH  12  14
ENDBRANCH  11  12
ENDBRANCH   1  11
TORSDOF 3
