MODEL 1
REMARK VINA RESULT:      -8.2      0.000      0.000
REMARK  3 active torsions:
REMARK  status: ('A' for Active; 'I' for Inactive)
REMARK    1  A    between atoms: O_1  and  C_2 
REMARK    2  A    between atoms: C_2  and  C_3 
REMARK    3  A    between atoms: C_3  and  C_4 
ROOT
HETATM    1  C   LIG     1      16.740  36.179  22.741  1.00  0.00    -0.020 A 
HETATM    2  C   LIG     1      16.549  37.550  22.594  1.00  0.00     0.097 A 
HETATM    3  N   LIG     1      16.851  38.195  23.744  1.00  0.00    -0.365 N 
HETATM    4  C   LIG     1      17.228  37.243  24.615  1.00  0.00     0.042 A 
HETATM    5  C   LIG     1      17.174  35.999  24.040  1.00  0.00    -0.001 A 
HETATM    6  C   LIG     1      17.513  34.847  24.748  1.00  0.00     0.014 A 
HETATM    7  C   LIG     1      17.923  34.995  26.086  1.00  0.00     0.001 A 
HETATM    8  C   LIG     1      17.982  36.277  26.678  1.00  0.00     0.002 A 
HETATM    9  C   LIG     1      17.630  37.421  25.939  1.00  0.00     0.030 A 
HETATM   10  H   LIG     1      16.799  39.224  23.916  1.00  0.00     0.165 HD
ENDROOT
BRANCH   1  11
HETATM   11  C   LIG     1      16.522  35.129  21.694  1.00  0.00     0.150 C 
BRANCH  11  12
HETATM   12  C   LIG     1      15.058  34.900  21.482  1.00  0.00     0.143 C 
HETATM   13  O   LIG     1      14.557  33.768  21.708  1.00  0.00    -0.650 OA
BRANCH  12  14
HETATM   14  O   LIG     1      14.242  35.929  21.019  1.00  0.00    -0.776 OA
HETATM   15  H   LIG     1      14.399  36.353  20.112  1.00  0.00     0.167 HD
ENDBRANCH  12  14
ENDBRANCH  11  12
ENDBRANCH   1  11
TORSDOF 3
ENDMDL
MODEL 2
REMARK VINA RESULT:      -7.9      3.355      4.993
REMARK  3 active torsions:
REMARK  status: ('A' for Active; 'I' for Inactive)
REMARK    1  A    between atoms: O_1  and  C_2 
REMARK    2  A    between atoms: C_2  and  C_3 
REMARK    3  A    between atoms: C_3  and  C_4 
ROOT
HETATM    1  C   LIG     1      16.754  37.192  22.164  1.00  0.00    -0.020 A 
HETATM    2  C   LIG     1      16.477  35.943  21.616  1.00  0.00     0.097 A 
HETATM    3  N   LIG     1      17.275  35.709  20.549  1.00  0.00    -0.365 N 
HETATM    4  C   LIG     1      18.051  36.799  20.419  1.00  0.00     0.042 A 
HETATM    5  C   LIG     1      17.762  37.727  21.386  1.00  0.00    -0.001 A 
HETATM    6  C   LIG     1      18.432  38.949  21.456  1.00  0.00     0.014 A 
HETATM    7  C   LIG     1      19.429  39.206  20.498  1.00  0.00     0.001 A 
HETATM    8  C   LIG     1      19.729  38.249  19.503  1.00  0.00     0.002 A 
HETATM    9  C   LIG     1      19.034  37.027  19.456  1.00  0.00     0.030 A 
HETATM   10  H   LIG     1      17.283  34.853  19.950  1.00  0.00     0.165 HD
ENDROOT
BRANCH   1  11
HETATM   11  C   LIG     1      16.090  37.811  23.357  1.00  0.00     0.150 C 
BRANCH  11  12
HETATM   12  C   LIG     1      16.927  37.607  24.582  1.00  0.00     0.143 C 
HETATM   13  O   LIG     1      17.330  36.455  24.885  1.00  0.00    -0.650 OA
BRANCH  12  14
HETATM   14  O   LIG     1      17.250  38.683  25.404  1.00  0.00    -0.776 OA
HETATM   15  H   LIG     1      16.645  38.957  26.169  1.00  0.00     0.167 HD
ENDBRANCH  12  14
ENDBRANCH  11  12
ENDBRANCH   1  11
TORSDOF 3
ENDMDL
MODEL 3
REMARK VINA RESULT:      -7.9      2.689      3.613
REMARK  3 active torsions:
REMARK  status: ('A' for Active; 'I' for Inactive)
REMARK    1  A    between atoms: O_1  and  C_2 
REMARK    2  A    between atoms: C_2  and  C_3 
REMARK    3  A    between atoms: C_3  and  C_4 
ROOT
HETATM    1  C   LIG     1      17.060  37.497  22.903  1.00  0.00    -0.020 A 
HETATM    2  C   LIG     1      16.641  36.404  22.152  1.00  0.00     0.097 A 
HETATM    3  N   LIG     1      16.728  35.268  22.882  1.00  0.00    -0.365 N 
HETATM    4  C   LIG     1      17.198  35.637  24.087  1.00  0.00     0.042 A 
HETATM    5  C   LIG     1      17.414  36.990  24.138  1.00  0.00    -0.001 A 
HETATM    6  C   LIG     1      17.908  37.612  25.284  1.00  0.00     0.014 A 
HETATM    7  C   LIG     1      18.180  36.805  26.404  1.00  0.00     0.001 A 
HETATM    8  C   LIG     1      17.956  35.411  26.352  1.00  0.00     0.002 A 
HETATM    9  C   LIG     1      17.459  34.811  25.180  1.00  0.00     0.030 A 
HETATM   10  H   LIG     1      16.479  34.303  22.570  1.00  0.00     0.165 HD
ENDROOT
BRANCH   1  11
HETATM   11  C   LIG     1      17.104  38.927  22.453  1.00  0.00     0.150 C 
BRANCH  11  12
HETATM   12  C   LIG     1      18.374  39.198  21.707  1.00  0.00     0.143 C 
HETATM   13  O   LIG     1      18.361  39.282  20.451  1.00  0.00    -0.650 OA
BRANCH  12  14
HETATM   14  O   LIG     1      19.578  39.342  22.390  1.00  0.00    -0.776 OA
HETATM   15  H   LIG     1      20.465  39.206  21.920  1.00  0.00     0.167 HD
ENDBRANCH  12  14
ENDBRANCH  11  12
ENDBRANCH   1  11
TORSDOF 3
ENDMDL
MODEL 4
REMARK VINA RESULT:      -7.8      2.395      3.934
REMARK  3 active torsions:
REMARK  status: ('A' for Active; 'I' for Inactive)
REMARK    1  A    between atoms: O_1  and  C_2 
REMARK    2  A    between atoms: C_2  and  C_3 
REMARK    3  A    between atoms: C_3  and  C_4 
ROOT
HETATM    1  C   LIG     1      17.015  36.623  22.051  1.00  0.00    -0.020 A 
HETATM    2  C   LIG     1      16.631  37.604  22.961  1.00  0.00     0.097 A 
HETATM    3  N   LIG     1      17.208  38.788  22.650  1.00  0.00    -0.365 N 
HETATM    4  C   LIG     1      17.953  38.561  21.553  1.00  0.00     0.042 A 
HETATM    5  C   LIG     1      17.861  37.252  21.158  1.00  0.00    -0.001 A 
HETATM    6  C   LIG     1      18.551  36.770  20.046  1.00  0.00     0.014 A 
HETATM    7  C   LIG     1      19.352  37.676  19.327  1.00  0.00     0.001 A 
HETATM    8  C   LIG     1      19.444  39.027  19.733  1.00  0.00     0.002 A 
HETATM    9  C   LIG     1      18.739  39.482  20.861  1.00  0.00     0.030 A 
HETATM   10  H   LIG     1      17.095  39.691  23.161  1.00  0.00     0.165 HD
ENDROOT
BRANCH   1  11
HETATM   11  C   LIG     1      16.584  35.187  22.050  1.00  0.00     0.150 C 
BRANCH  11  12
HETATM   12  C   LIG     1      15.550  34.955  20.992  1.00  0.00     0.143 C 
HETATM   13  O   LIG     1      15.832  34.270  19.975  1.00  0.00    -0.650 OA
BRANCH  12  14
HETATM   14  O   LIG     1      14.278  35.507  21.115  1.00  0.00    -0.776 OA
HETATM   15  H   LIG     1      14.016  36.337  20.596  1.00  0.00     0.167 HD
ENDBRANCH  12  14
ENDBRANCH  11  12
ENDBRANCH   1  11
TORSDOF 3
ENDMDL
MODEL 5
REMARK VINA RESULT:      -7.0      3.373      4.853
REMARK  3 active torsions:
REMARK  status: ('A' for Active; 'I' for Inactive)
REMARK    1  A    between atoms: O_1  and  C_2 
REMARK    2  A    between atoms: C_2  and  C_3 
REMARK    3  A    between atoms: C_3  and  C_4 
ROOT
HETATM    1  C   LIG     1      17.379  38.275  22.439  1.00  0.00    -0.020 A 
HETATM    2  C   LIG     1      17.778  39.569  22.758  1.00  0.00     0.097 A 
HETATM    3  N   LIG     1      18.701  40.011  21.873  1.00  0.00    -0.365 N 
HETATM    4  C   LIG     1      18.889  39.005  21.000  1.00  0.00     0.042 A 
HETATM    5  C   LIG     1      18.100  37.928  21.313  1.00  0.00    -0.001 A 
HETATM    6  C   LIG     1      18.122  36.757  20.556  1.00  0.00     0.014 A 
HETATM    7  C   LIG     1      18.983  36.710  19.444  1.00  0.00     0.001 A 
HETATM    8  C   LIG     1      19.794  37.821  19.120  1.00  0.00     0.002 A 
HETATM    9  C   LIG     1      19.752  38.988  19.906  1.00  0.00     0.030 A 
HETATM   10  H   LIG     1      19.170  40.944  21.872  1.00  0.00     0.165 HD
ENDROOT
BRANCH   1  11
HETATM   11  C   LIG     1      16.370  37.444  23.173  1.00  0.00     0.150 C 
BRANCH  11  12
HETATM   12  C   LIG     1      16.878  37.090  24.536  1.00  0.00     0.143 C 
HETATM   13  O   LIG     1      17.397  35.962  24.742  1.00  0.00    -0.650 OA
BRANCH  12  14
HETATM   14  O   LIG     1      16.767  37.994  25.588  1.00  0.00    -0.776 OA
HETATM   15  H   LIG     1      17.497  38.077  26.287  1.00  0.00     0.167 HD
ENDBRANCH  12  14
ENDBRANCH  11  12
ENDBRANCH   1  11
TORSDOF 3
ENDMDL
MODEL 6
REMARK VINA RESULT:      -6.9      3.546      4.630
REMARK  3 active torsions:
REMARK  status: ('A' for Active; 'I' for Inactive)
REMARK    1  A    between atoms: O_1  and  C_2 
REMARK    2  A    between atoms: C_2  and  C_3 
REMARK    3  A    between atoms: C_3  and  C_4 
ROOT
HETATM    1  C   LIG     1      18.169  38.571  21.072  1.00  0.00    -0.020 A 
HETATM    2  C   LIG     1      18.260  39.303  22.251  1.00  0.00     0.097 A 
HETATM    3  N   LIG     1      17.838  38.561  23.301  1.00  0.00    -0.365 N 
HETATM    4  C   LIG     1      17.480  37.369  22.793  1.00  0.00     0.042 A 
HETATM    5  C   LIG     1      17.667  37.336  21.435  1.00  0.00    -0.001 A 
HETATM    6  C   LIG     1      17.361  36.206  20.678  1.00  0.00     0.014 A 
HETATM    7  C   LIG     1      16.852  35.081  21.354  1.00  0.00     0.001 A 
HETATM    8  C   LIG     1      16.662  35.114  22.754  1.00  0.00     0.002 A 
HETATM    9  C   LIG     1      16.977  36.271  23.490  1.00  0.00     0.030 A 
HETATM   10  H   LIG     1      17.800  38.859  24.301  1.00  0.00     0.165 HD
ENDROOT
BRANCH   1  11
HETATM   11  C   LIG     1      18.548  39.038  19.698  1.00  0.00     0.150 C 
BRANCH  11  12
HETATM   12  C   LIG     1      19.970  38.676  19.400  1.00  0.00     0.143 C 
HETATM   13  O   LIG     1      20.384  37.510  19.625  1.00  0.00    -0.650 OA
BRANCH  12  14
HETATM   14  O   LIG     1      20.848  39.628  18.888  1.00  0.00    -0.776 OA
HETATM   15  H   LIG     1      21.060  39.665  17.898  1.00  0.00     0.167 HD
ENDBRANCH  12  14
ENDBRANCH  11  12
ENDBRANCH   1  11
TORSDOF 3
ENDMDL
MODEL 7
REMARK VINA RESULT:      -6.7      8.406     10.315
REMARK  3 active torsions:
REMARK  status: ('A' for Active; 'I' for Inactive)
REMARK    1  A    between atoms: O_1  and  C_2 
REMARK    2  A    between atoms: C_2  and  C_3 
REMARK    3  A    between atoms: C_3  and  C_4 
ROOT
HETATM    1  C   LIG     1      16.098  32.490  15.629  1.00  0.00    -0.020 A 
HETATM    2  C   LIG     1      15.420  33.125  16.664  1.00  0.00     0.097 A 
HETATM    3  N   LIG     1      14.227  32.526  16.886  1.00  0.00    -0.365 N 
HETATM    4  C   LIG     1      14.147  31.519  15.997  1.00  0.00     0.042 A 
HETATM    5  C   LIG     1      15.270  31.465  15.212  1.00  0.00    -0.001 A 
HETATM    6  C   LIG     1      15.420  30.508  14.209  1.00  0.00     0.014 A 
HETATM    7  C   LIG     1      14.376  29.583  14.024  1.00  0.00     0.001 A 
HETATM    8  C   LIG     1      13.221  29.636  14.835  1.00  0.00     0.002 A 
HETATM    9  C   LIG     1      13.097  30.616  15.836  1.00  0.00     0.030 A 
HETATM   10  H   LIG     1      13.516  32.794  17.602  1.00  0.00     0.165 HD
ENDROOT
BRANCH   1  11
HETATM   11  C   LIG     1      17.450  32.851  15.092  1.00  0.00     0.150 C 
BRANCH  11  12
HETATM   12  C   LIG     1      17.323  33.868  14.001  1.00  0.00     0.143 C 
HETATM   13  O   LIG     1      17.600  35.075  14.229  1.00  0.00    -0.650 OA
BRANCH  12  14
HETATM   14  O   LIG     1      16.882  33.495  12.735  1.00  0.00    -0.776 OA
HETATM   15  H   LIG     1      16.235  34.074  12.214  1.00  0.00     0.167 HD
ENDBRANCH  12  14
ENDBRANCH  11  12
ENDBRANCH   1  11
TORSDOF 3
ENDMDL
MODEL 8
REMARK VINA RESULT:      -6.7      4.080      5.303
REMARK  3 active torsions:
REMARK  status: ('A' for Active; 'I' for Inactive)
REMARK    1  A    between atoms: O_1  and  C_2 
REMARK    2  A    between atoms: C_2  and  C_3 
REMARK    3  A    between atoms: C_3  and  C_4 
ROOT
HETATM    1  C   LIG     1      18.941  37.907  20.010  1.00  0.00    -0.020 A 
HETATM    2  C   LIG     1      18.631  36.659  19.479  1.00  0.00     0.097 A 
HETATM    3  N   LIG     1      17.687  36.047  20.231  1.00  0.00    -0.365 N 
HETATM    4  C   LIG     1      17.400  36.899  21.232  1.00  0.00     0.042 A 
HETATM    5  C   LIG     1      18.146  38.045  21.131  1.00  0.00    -0.001 A 
HETATM    6  C   LIG     1      18.032  39.080  22.060  1.00  0.00     0.014 A 
HETATM    7  C   LIG     1      17.115  38.917  23.114  1.00  0.00     0.001 A 
HETATM    8  C   LIG     1      16.345  37.737  23.217  1.00  0.00     0.002 A 
HETATM    9  C   LIG     1      16.485  36.709  22.267  1.00  0.00     0.030 A 
HETATM   10  H   LIG     1      17.268  35.105  20.065  1.00  0.00     0.165 HD
ENDROOT
BRANCH   1  11
HETATM   11  C   LIG     1      19.930  38.891  19.461  1.00  0.00     0.150 C 
BRANCH  11  12
HETATM   12  C   LIG     1      19.373  39.567  18.247  1.00  0.00     0.143 C 
HETATM   13  O   LIG     1      18.202  40.026  18.263  1.00  0.00    -0.650 OA
BRANCH  12  14
HETATM   14  O   LIG     1      20.136  39.679  17.088  1.00  0.00    -0.776 OA
HETATM   15  H   LIG     1      19.766  40.130  16.260  1.00  0.00     0.167 HD
ENDBRANCH  12  14
ENDBRANCH  11  12
ENDBRANCH   1  11
TORSDOF 3
ENDMDL
MODEL 9
REMARK VINA RESULT:      -6.6      2.699      3.482
REMARK  3 active torsions:
REMARK  status: ('A' for Active; 'I' for Inactive)
REMARK    1  A    between atoms: O_1  and  C_2 
REMARK    2  A    between atoms: C_2  and  C_3 
REMARK    3  A    between atoms: C_3  and  C_4 
ROOT
HETATM    1  C   LIG     1      17.203  38.373  23.639  1.00  0.00    -0.020 A 
HETATM    2  C   LIG     1      17.387  39.230  24.720  1.00  0.00     0.097 A 
HETATM    3  N   LIG     1      17.581  38.521  25.856  1.00  0.00    -0.365 N 
HETATM    4  C   LIG     1      17.519  37.225  25.500  1.00  0.00     0.042 A 
HETATM    5  C   LIG     1      17.289  37.095  24.155  1.00  0.00    -0.001 A 
HETATM    6  C   LIG     1      17.177  35.845  23.546  1.00  0.00     0.014 A 
HETATM    7  C   LIG     1      17.314  34.705  24.359  1.00  0.00     0.001 A 
HETATM    8  C   LIG     1      17.554  34.839  25.745  1.00  0.00     0.002 A 
HETATM    9  C   LIG     1      17.658  36.114  26.331  1.00  0.00     0.030 A 
HETATM   10  H   LIG     1      17.745  38.905  26.813  1.00  0.00     0.165 HD
ENDROOT
BRANCH   1  11
HETATM   11  C   LIG     1      16.967  38.772  22.213  1.00  0.00     0.150 C 
BRANCH  11  12
HETATM   12  C   LIG     1      18.269  39.063  21.532  1.00  0.00     0.143 C 
HETATM   13  O   LIG     1      18.340  39.047  20.276  1.00  0.00    -0.650 OA
BRANCH  12  14
HETATM   14  O   LIG     1      19.412  39.334  22.279  1.00  0.00    -0.776 OA
HETATM   15  H   LIG     1      20.329  39.055  21.951  1.00  0.00     0.167 HD
ENDBRANCH  12  14
ENDBRANCH  11  12
ENDBRANCH   1  11
TORSDOF 3
ENDMDL
MODEL 10
REMARK VINA RESULT:      -6.4      9.234     10.479
REMARK  3 active torsions:
REMARK  status: ('A' for Active; 'I' for Inactive)
REMARK    1  A    between atoms: O_1  and  C_2 
REMARK    2  A    between atoms: C_2  and  C_3 
REMARK    3  A    between atoms: C_3  and  C_4 
ROOT
HETATM    1  C   LIG     1      16.376  32.297  14.538  1.00  0.00    -0.020 A 
HETATM    2  C   LIG     1      16.249  31.516  13.394  1.00  0.00     0.097 A 
HETATM    3  N   LIG     1      15.180  30.694  13.501  1.00  0.00    -0.365 N 
HETATM    4  C   LIG     1      14.633  30.949  14.703  1.00  0.00     0.042 A 
HETATM    5  C   LIG     1      15.335  31.922  15.366  1.00  0.00    -0.001 A 
HETATM    6  C   LIG     1      14.966  32.357  16.639  1.00  0.00     0.014 A 
HETATM    7  C   LIG     1      13.834  31.767  17.231  1.00  0.00     0.001 A 
HETATM    8  C   LIG     1      13.109  30.766  16.546  1.00  0.00     0.002 A 
HETATM    9  C   LIG     1      13.509  30.345  15.265  1.00  0.00     0.030 A 
HETATM   10  H   LIG     1      14.850  30.002  12.792  1.00  0.00     0.165 HD
ENDROOT
BRANCH   1  11
HETATM   11  C   LIG     1      17.427  33.334  14.800  1.00  0.00     0.150 C 
BRANCH  11  12
HETATM   12  C   LIG     1      17.989  33.843  13.509  1.00  0.00     0.143 C 
HETATM   13  O   LIG     1      19.045  33.342  13.041  1.00  0.00    -0.650 OA
BRANCH  12  14
HETATM   14  O   LIG     1      17.363  34.881  12.826  1.00  0.00    -0.776 OA
HETATM   15  H   LIG     1      16.575  34.705  12.214  1.00  0.00     0.167 HD
ENDBRANCH  12  14
ENDBRANCH  11  12
ENDBRANCH   1  11
TORSDOF 3
ENDMDL
MODEL 11
REMARK VINA RESULT:      -6.4      7.095      9.929
REMARK  3 active torsions:
REMARK  status: ('A' for Active; 'I' for Inactive)
REMARK    1  A    between atoms: O_1  and  C_2 
REMARK    2  A    between atoms: C_2  and  C_3 
REMARK    3  A    between atoms: C_3  and  C_4 
ROOT
HETATM    1  C   LIG     1      15.211  32.520  16.301  1.00  0.00    -0.020 A 
HETATM    2  C   LIG     1      16.399  32.824  15.644  1.00  0.00     0.097 A 
HETATM    3  N   LIG     1      16.590  31.985  14.600  1.00  0.00    -0.365 N 
HETATM    4  C   LIG     1      15.534  31.153  14.595  1.00  0.00     0.042 A 
HETATM    5  C   LIG     1      14.670  31.448  15.618  1.00  0.00    -0.001 A 
HETATM    6  C   LIG     1      13.500  30.718  15.826  1.00  0.00     0.014 A 
HETATM    7  C   LIG     1      13.222  29.660  14.942  1.00  0.00     0.001 A 
HETATM    8  C   LIG     1      14.110  29.357  13.885  1.00  0.00     0.002 A 
HETATM    9  C   LIG     1      15.285  30.109  13.704  1.00  0.00     0.030 A 
HETATM   10  H   LIG     1      17.396  31.986  13.937  1.00  0.00     0.165 HD
ENDROOT
BRANCH   1  11
HETATM   11  C   LIG     1      14.646  33.225  17.497  1.00  0.00     0.150 C 
BRANCH  11  12
HETATM   12  C   LIG     1      14.947  32.454  18.746  1.00  0.00     0.143 C 
HETATM   13  O   LIG     1      15.938  32.768  19.456  1.00  0.00    -0.650 OA
BRANCH  12  14
HETATM   14  O   LIG     1      14.150  31.378  19.122  1.00  0.00    -0.776 OA
HETATM   15  H   LIG     1      13.459  30.992  18.489  1.00  0.00     0.167 HD
ENDBRANCH  12  14
ENDBRANCH  11  12
ENDBRANCH   1  11
TORSDOF 3
ENDMDL
MODEL 12
REMARK VINA RESULT:      -6.4      2.873      4.542
REMARK  3 active torsions:
REMARK  status: ('A' for Active; 'I' for Inactive)
REMARK    1  A    between atoms: O_1  and  C_2 
REMARK    2  A    between atoms: C_2  and  C_3 
REMARK    3  A    between atoms: C_3  and  C_4 
ROOT
HETATM    1  C   LIG     1      17.351  37.791  23.504  1.00  0.00    -0.020 A 
HETATM    2  C   LIG     1      18.136  38.732  22.845  1.00  0.00     0.097 A 
HETATM    3  N   LIG     1      18.270  38.403  21.539  1.00  0.00    -0.365 N 
HETATM    4  C   LIG     1      17.578  37.262  21.371  1.00  0.00     0.042 A 
HETATM    5  C   LIG     1      17.003  36.857  22.548  1.00  0.00    -0.001 A 
HETATM    6  C   LIG     1      16.239  35.694  22.631  1.00  0.00     0.014 A 
HETATM    7  C   LIG     1      16.065  34.938  21.456  1.00  0.00     0.001 A 
HETATM    8  C   LIG     1      16.655  35.357  20.242  1.00  0.00     0.002 A 
HETATM    9  C   LIG     1      17.425  36.534  20.192  1.00  0.00     0.030 A 
HETATM   10  H   LIG     1      18.804  38.931  20.813  1.00  0.00     0.165 HD
ENDROOT
BRANCH   1  11
HETATM   11  C   LIG     1      16.966  37.807  24.953  1.00  0.00     0.150 C 
BRANCH  11  12
HETATM   12  C   LIG     1      17.846  36.880  25.735  1.00  0.00     0.143 C 
HETATM   13  O   LIG     1      17.573  35.653  25.795  1.00  0.00    -0.650 OA
BRANCH  12  14
HETATM   14  O   LIG     1      18.958  37.368  26.415  1.00  0.00    -0.776 OA
HETATM   15  H   LIG     1      19.893  37.243  26.044  1.00  0.00     0.167 HD
ENDBRANCH  12  14
ENDBRANCH  11  12
ENDBRANCH   1  11
TORSDOF 3
ENDMDL
MODEL 13
REMARK VINA RESULT:      -6.3      7.903     10.312
REMARK  3 active torsions:
REMARK  status: ('A' for Active; 'I' for Inactive)
REMARK    1  A    between atoms: O_1  and  C_2 
REMARK    2  A    between atoms: C_2  and  C_3 
REMARK    3  A    between atoms: C_3  and  C_4 
ROOT
HETATM    1  C   LIG     1      14.308  31.800  16.719  1.00  0.00    -0.020 A 
HETATM    2  C   LIG     1      12.992  31.629  17.138  1.00  0.00     0.097 A 
HETATM    3  N   LIG     1      12.367  30.709  16.367  1.00  0.00    -0.365 N 
HETATM    4  C   LIG     1      13.277  30.301  15.465  1.00  0.00     0.042 A 
HETATM    5  C   LIG     1      14.474  30.945  15.647  1.00  0.00    -0.001 A 
HETATM    6  C   LIG     1      15.575  30.695  14.829  1.00  0.00     0.014 A 
HETATM    7  C   LIG     1      15.426  29.749  13.799  1.00  0.00     0.001 A 
HETATM    8  C   LIG     1      14.193  29.083  13.612  1.00  0.00     0.002 A 
HETATM    9  C   LIG     1      13.099  29.359  14.452  1.00  0.00     0.030 A 
HETATM   10  H   LIG     1      11.379  30.385  16.457  1.00  0.00     0.165 HD
ENDROOT
BRANCH   1  11
HETATM   11  C   LIG     1      15.324  32.723  17.322  1.00  0.00     0.150 C 
BRANCH  11  12
HETATM   12  C   LIG     1      15.225  34.083  16.703  1.00  0.00     0.143 C 
HETATM   13  O   LIG     1      16.195  34.549  16.050  1.00  0.00    -0.650 OA
BRANCH  12  14
HETATM   14  O   LIG     1      14.073  34.847  16.858  1.00  0.00    -0.776 OA
HETATM   15  H   LIG     1      13.185  34.415  17.087  1.00  0.00     0.167 HD
ENDBRANCH  12  14
ENDBRANCH  11  12
ENDBRANCH   1  11
TORSDOF 3
ENDMDL
MODEL 14
REMARK VINA RESULT:      -6.3      1.715      2.519
REMARK  3 active torsions:
REMARK  status: ('A' for Active; 'I' for Inactive)
REMARK    1  A    between atoms: O_1  and  C_2 
REMARK    2  A    between atoms: C_2  and  C_3 
REMARK    3  A    between atoms: C_3  and  C_4 
ROOT
HETATM    1  C   LIG     1      17.112  35.853  21.275  1.00  0.00    -0.020 A 
HETATM    2  C   LIG     1      17.756  36.514  20.234  1.00  0.00     0.097 A 
HETATM    3  N   LIG     1      18.262  37.693  20.665  1.00  0.00    -0.365 N 
HETATM    4  C   LIG     1      17.941  37.781  21.968  1.00  0.00     0.042 A 
HETATM    5  C   LIG     1      17.238  36.677  22.377  1.00  0.00    -0.001 A 
HETATM    6  C   LIG     1      16.786  36.538  23.689  1.00  0.00     0.014 A 
HETATM    7  C   LIG     1      17.078  37.573  24.596  1.00  0.00     0.001 A 
HETATM    8  C   LIG     1      17.804  38.710  24.175  1.00  0.00     0.002 A 
HETATM    9  C   LIG     1      18.244  38.822  22.844  1.00  0.00     0.030 A 
HETATM   10  H   LIG     1      18.793  38.390  20.097  1.00  0.00     0.165 HD
ENDROOT
BRANCH   1  11
HETATM   11  C   LIG     1      16.433  34.518  21.202  1.00  0.00     0.150 C 
BRANCH  11  12
HETATM   12  C   LIG     1      14.947  34.685  21.287  1.00  0.00     0.143 C 
HETATM   13  O   LIG     1      14.433  35.827  21.157  1.00  0.00    -0.650 OA
BRANCH  12  14
HETATM   14  O   LIG     1      14.126  33.588  21.526  1.00  0.00    -0.776 OA
HETATM   15  H   LIG     1      14.460  32.642  21.383  1.00  0.00     0.167 HD
ENDBRANCH  12  14
ENDBRANCH  11  12
ENDBRANCH   1  11
TORSDOF 3
ENDMDL
MODEL 15
REMARK VINA RESULT:      -6.3      8.787     10.759
REMARK  3 active torsions:
REMARK  status: ('A' for Active; 'I' for Inactive)
REMARK    1  A    between atoms: O_1  and  C_2 
REMARK    2  A    between atoms: C_2  and  C_3 
REMARK    3  A    between atoms: C_3  and  C_4 
ROOT
HETATM    1  C   LIG     1      14.474  30.110  14.306  1.00  0.00    -0.020 A 
HETATM    2  C   LIG     1      15.377  30.681  13.414  1.00  0.00     0.097 A 
HETATM    3  N   LIG     1      15.925  31.797  13.947  1.00  0.00    -0.365 N 
HETATM    4  C   LIG     1      15.375  31.935  15.166  1.00  0.00     0.042 A 
HETATM    5  C   LIG     1      14.484  30.925  15.421  1.00  0.00    -0.001 A 
HETATM    6  C   LIG     1      13.777  30.854  16.621  1.00  0.00     0.014 A 
HETATM    7  C   LIG     1      14.010  31.858  17.580  1.00  0.00     0.001 A 
HETATM    8  C   LIG     1      14.930  32.897  17.318  1.00  0.00     0.002 A 
HETATM    9  C   LIG     1      15.625  32.944  16.096  1.00  0.00     0.030 A 
HETATM   10  H   LIG     1      16.632  32.421  13.498  1.00  0.00     0.165 HD
ENDROOT
BRANCH   1  11
HETATM   11  C   LIG     1      13.671  28.863  14.089  1.00  0.00     0.150 C 
BRANCH  11  12
HETATM   12  C   LIG     1      14.543  27.768  13.557  1.00  0.00     0.143 C 
HETATM   13  O   LIG     1      15.688  27.581  14.045  1.00  0.00    -0.650 OA
BRANCH  12  14
HETATM   14  O   LIG     1      14.104  26.960  12.512  1.00  0.00    -0.776 OA
HETATM   15  H   LIG     1      13.969  25.965  12.641  1.00  0.00     0.167 HD
ENDBRANCH  12  14
ENDBRANCH  11  12
ENDBRANCH   1  11
TORSDOF 3
ENDMDL
MODEL 16
REMARK VINA RESULT:      -6.1      9.043     10.920
REMARK  3 active torsions:
REMARK  status: ('A' for Active; 'I' for Inactive)
REMARK    1  A    between atoms: O_1  and  C_2 
REMARK    2  A    between atoms: C_2  and  C_3 
REMARK    3  A    between atoms: C_3  and  C_4 
ROOT
HETATM    1  C   LIG     1      14.448  29.911  14.392  1.00  0.00    -0.020 A 
HETATM    2  C   LIG     1      13.192  29.462  14.787  1.00  0.00     0.097 A 
HETATM    3  N   LIG     1      12.699  30.245  15.774  1.00  0.00    -0.365 N 
HETATM    4  C   LIG     1      13.635  31.183  16.006  1.00  0.00     0.042 A 
HETATM    5  C   LIG     1      14.718  31.012  15.183  1.00  0.00    -0.001 A 
HETATM    6  C   LIG     1      15.825  31.858  15.239  1.00  0.00     0.014 A 
HETATM    7  C   LIG     1      15.799  32.910  16.173  1.00  0.00     0.001 A 
HETATM    8  C   LIG     1      14.682  33.088  17.020  1.00  0.00     0.002 A 
HETATM    9  C   LIG     1      13.582  32.215  16.942  1.00  0.00     0.030 A 
HETATM   10  H   LIG     1      11.779  30.139  16.256  1.00  0.00     0.165 HD
ENDROOT
BRANCH   1  11
HETATM   11  C   LIG     1      15.315  29.317  13.323  1.00  0.00     0.150 C 
BRANCH  11  12
HETATM   12  C   LIG     1      15.246  27.822  13.369  1.00  0.00     0.143 C 
HETATM   13  O   LIG     1      16.050  27.176  14.090  1.00  0.00    -0.650 OA
BRANCH  12  14
HETATM   14  O   LIG     1      14.308  27.134  12.604  1.00  0.00    -0.776 OA
HETATM   15  H   LIG     1      14.584  26.368  12.001  1.00  0.00     0.167 HD
ENDBRANCH  12  14
ENDBRANCH  11  12
ENDBRANCH   1  11
TORSDOF 3
ENDMDL
MODEL 17
REMARK VINA RESULT:      -6.1      9.502     10.749
REMARK  3 active torsions:
REMARK  status: ('A' for Active; 'I' for Inactive)
REMARK    1  A    between atoms: O_1  and  C_2 
REMARK    2  A    between atoms: C_2  and  C_3 
REMARK    3  A    between atoms: C_3  and  C_4 
ROOT
HETATM    1  C   LIG     1      17.374  33.171  13.816  1.00  0.00    -0.020 A 
HETATM    2  C   LIG     1      17.480  34.031  14.904  1.00  0.00     0.097 A 
HETATM    3  N   LIG     1      16.586  33.693  15.862  1.00  0.00    -0.365 N 
HETATM    4  C   LIG     1      15.917  32.629  15.386  1.00  0.00     0.042 A 
HETATM    5  C   LIG     1      16.369  32.280  14.140  1.00  0.00    -0.001 A 
HETATM    6  C   LIG     1      15.825  31.207  13.434  1.00  0.00     0.014 A 
HETATM    7  C   LIG     1      14.787  30.479  14.045  1.00  0.00     0.001 A 
HETATM    8  C   LIG     1      14.323  30.836  15.331  1.00  0.00     0.002 A 
HETATM    9  C   LIG     1      14.890  31.926  16.016  1.00  0.00     0.030 A 
HETATM   10  H   LIG     1      16.448  34.167  16.783  1.00  0.00     0.165 HD
ENDROOT
BRANCH   1  11
HETATM   11  C   LIG     1      18.194  33.211  12.562  1.00  0.00     0.150 C 
BRANCH  11  12
HETATM   12  C   LIG     1      18.075  34.551  11.905  1.00  0.00     0.143 C 
HETATM   13  O   LIG     1      19.047  35.027  11.262  1.00  0.00    -0.650 OA
BRANCH  12  14
HETATM   14  O   LIG     1      16.899  35.288  12.012  1.00  0.00    -0.776 OA
HETATM   15  H   LIG     1      16.052  34.994  11.540  1.00  0.00     0.167 HD
ENDBRANCH  12  14
ENDBRANCH  11  12
ENDBRANCH   1  11
TORSDOF 3
ENDMDL
MODEL 18
REMARK VINA RESULT:      -5.9      2.839      4.443
REMARK  3 active torsions:
REMARK  status: ('A' for Active; 'I' for Inactive)
REMARK    1  A    between atoms: O_1  and  C_2 
REMARK    2  A    between atoms: C_2  and  C_3 
REMARK    3  A    between atoms: C_3  and  C_4 
ROOT
HETATM    1  C   LIG     1      17.093  37.455  23.640  1.00  0.00    -0.020 A 
HETATM    2  C   LIG     1      16.085  38.415  23.635  1.00  0.00     0.097 A 
HETATM    3  N   LIG     1      15.088  38.048  22.798  1.00  0.00    -0.365 N 
HETATM    4  C   LIG     1      15.459  36.866  22.274  1.00  0.00     0.042 A 
HETATM    5  C   LIG     1      16.677  36.471  22.764  1.00  0.00    -0.001 A 
HETATM    6  C   LIG     1      17.279  35.279  22.363  1.00  0.00     0.014 A 
HETATM    7  C   LIG     1      16.590  34.477  21.434  1.00  0.00     0.001 A 
HETATM    8  C   LIG     1      15.333  34.882  20.932  1.00  0.00     0.002 A 
HETATM    9  C   LIG     1      14.754  36.093  21.352  1.00  0.00     0.030 A 
HETATM   10  H   LIG     1      14.210  38.578  22.601  1.00  0.00     0.165 HD
ENDROOT
BRANCH   1  11
HETATM   11  C   LIG     1      18.359  37.492  24.443  1.00  0.00     0.150 C 
BRANCH  11  12
HETATM   12  C   LIG     1      18.120  36.947  25.817  1.00  0.00     0.143 C 
HETATM   13  O   LIG     1      18.537  35.800  26.121  1.00  0.00    -0.650 OA
BRANCH  12  14
HETATM   14  O   LIG     1      17.421  37.694  26.761  1.00  0.00    -0.776 OA
HETATM   15  H   LIG     1      17.794  38.566  27.119  1.00  0.00     0.167 HD
ENDBRANCH  12  14
ENDBRANCH  11  12
ENDBRANCH   1  11
TORSDOF 3
ENDMDL
MODEL 19
REMARK VINA RESULT:      -5.8      4.415      7.379
REMARK  3 active torsions:
REMARK  status: ('A' for Active; 'I' for Inactive)
REMARK    1  A    between atoms: O_1  and  C_2 
REMARK    2  A    between atoms: C_2  and  C_3 
REMARK    3  A    between atoms: C_3  and  C_4 
ROOT
HETATM    1  C   LIG     1      15.361  33.459  19.582  1.00  0.00    -0.020 A 
HETATM    2  C   LIG     1      14.824  32.507  20.444  1.00  0.00     0.097 A 
HETATM    3  N   LIG     1      14.277  31.489  19.741  1.00  0.00    -0.365 N 
HETATM    4  C   LIG     1      14.464  31.791  18.444  1.00  0.00     0.042 A 
HETATM    5  C   LIG     1      15.122  32.986  18.306  1.00  0.00    -0.001 A 
HETATM    6  C   LIG     1      15.426  33.517  17.054  1.00  0.00     0.014 A 
HETATM    7  C   LIG     1      15.040  32.782  15.918  1.00  0.00     0.001 A 
HETATM    8  C   LIG     1      14.364  31.549  16.059  1.00  0.00     0.002 A 
HETATM    9  C   LIG     1      14.068  31.041  17.337  1.00  0.00     0.030 A 
HETATM   10  H   LIG     1      13.806  30.642  20.131  1.00  0.00     0.165 HD
ENDROOT
BRANCH   1  11
HETATM   11  C   LIG     1      16.059  34.726  19.974  1.00  0.00     0.150 C 
BRANCH  11  12
HETATM   12  C   LIG     1      15.514  35.241  21.270  1.00  0.00     0.143 C 
HETATM   13  O   LIG     1      16.207  35.168  22.318  1.00  0.00    -0.650 OA
BRANCH  12  14
HETATM   14  O   LIG     1      14.235  35.787  21.332  1.00  0.00    -0.776 OA
HETATM   15  H   LIG     1      14.063  36.747  21.058  1.00  0.00     0.167 HD
ENDBRANCH  12  14
ENDBRANCH  11  12
ENDBRANCH   1  11
TORSDOF 3
ENDMDL
MODEL 20
REMARK VINA RESULT:      -5.5      9.868     11.799
REMARK  3 active torsions:
REMARK  status: ('A' for Active; 'I' for Inactive)
REMARK    1  A    between atoms: O_1  and  C_2 
REMARK    2  A    between atoms: C_2  and  C_3 
REMARK    3  A    between atoms: C_3  and  C_4 
ROOT
HETATM    1  C   LIG     1      14.855  30.875  15.173  1.00  0.00    -0.020 A 
HETATM    2  C   LIG     1      13.576  31.229  15.592  1.00  0.00     0.097 A 
HETATM    3  N   LIG     1      12.682  30.279  15.235  1.00  0.00    -0.365 N 
HETATM    4  C   LIG     1      13.386  29.329  14.594  1.00  0.00     0.042 A 
HETATM    5  C   LIG     1      14.716  29.657  14.536  1.00  0.00    -0.001 A 
HETATM    6  C   LIG     1      15.651  28.831  13.912  1.00  0.00     0.014 A 
HETATM    7  C   LIG     1      15.188  27.631  13.341  1.00  0.00     0.001 A 
HETATM    8  C   LIG     1      13.818  27.291  13.404  1.00  0.00     0.002 A 
HETATM    9  C   LIG     1      12.898  28.148  14.036  1.00  0.00     0.030 A 
HETATM   10  H   LIG     1      11.655  30.285  15.421  1.00  0.00     0.165 HD
ENDROOT
BRANCH   1  11
HETATM   11  C   LIG     1      16.114  31.661  15.385  1.00  0.00     0.150 C 
BRANCH  11  12
HETATM   12  C   LIG     1      16.329  32.615  14.251  1.00  0.00     0.143 C 
HETATM   13  O   LIG     1      16.721  33.789  14.481  1.00  0.00    -0.650 OA
BRANCH  12  14
HETATM   14  O   LIG     1      16.082  32.220  12.939  1.00  0.00    -0.776 OA
HETATM   15  H   LIG     1      15.516  32.789  12.320  1.00  0.00     0.167 HD
ENDBRANCH  12  14
ENDBRANCH  11  12
ENDBRANCH   1  11
TORSDOF 3
ENDMDL
