REMARK  0 active torsions:
REMARK  status: ('A' for Active; 'I' for Inactive)
ROOT
HETATM    1  I   LIG     1       1.814   2.664  -0.021  1.00  0.00    -0.040 I 
HETATM    2  C   LIG     1       0.643   0.904  -0.007  1.00  0.00     0.059 A 
HETATM    3  C   LIG     1       1.105  -0.400  -0.005  1.00  0.00     0.093 A 
HETATM    4  N   LIG     1       0.069  -1.256   0.005  1.00  0.00    -0.344 N 
HETATM    5  C   LIG     1      -1.055  -0.519   0.008  1.00  0.00     0.093 A 
HETATM    6  I   LIG     1      -2.993  -1.354   0.022  1.00  0.00    -0.023 I 
HETATM    7  C   LIG     1      -0.739   0.828   0.001  1.00  0.00     0.059 A 
HETATM    8  I   LIG     1      -2.095   2.449   0.002  1.00  0.00    -0.040 I 
HETATM    9  I   LIG     1       3.123  -1.017  -0.014  1.00  0.00    -0.023 I 
HETATM   10  H   LIG     1       0.127  -2.299   0.008  1.00  0.00     0.167 HD
ENDROOT
TORSDOF 0
