MODEL 1
REMARK VINA RESULT:      -3.4      0.000      0.000
REMARK  0 active torsions:
REMARK  status: ('A' for Active; 'I' for Inactive)
ROOT
HETATM    1  I   LIG     1       4.030  43.516  34.197  1.00  0.00    -0.040 I 
HETATM    2  C   LIG     1       3.538  42.533  32.391  1.00  0.00     0.059 A 
HETATM    3  C   LIG     1       3.388  43.114  31.144  1.00  0.00     0.093 A 
HETATM    4  N   LIG     1       3.074  42.177  30.234  1.00  0.00    -0.344 N 
HETATM    5  C   LIG     1       3.019  40.999  30.879  1.00  0.00     0.093 A 
HETATM    6  I   LIG     1       2.561  39.172  29.927  1.00  0.00    -0.023 I 
HETATM    7  C   LIG     1       3.302  41.180  32.221  1.00  0.00     0.059 A 
HETATM    8  I   LIG     1       3.361  39.688  33.717  1.00  0.00    -0.040 I 
HETATM    9  I   LIG     1       3.608  45.160  30.678  1.00  0.00    -0.023 I 
HETATM   10  H   LIG     1       2.903  42.335  29.215  1.00  0.00     0.167 HD
ENDROOT
TORSDOF 0
ENDMDL
MODEL 2
REMARK VINA RESULT:      -3.2      1.634      3.738
REMARK  0 active torsions:
REMARK  status: ('A' for Active; 'I' for Inactive)
ROOT
HETATM    1  I   LIG     1       3.221  39.830  33.748  1.00  0.00    -0.040 I 
HETATM    2  C   LIG     1       3.352  41.827  33.066  1.00  0.00     0.059 A 
HETATM    3  C   LIG     1       3.613  42.949  33.832  1.00  0.00     0.093 A 
HETATM    4  N   LIG     1       3.619  44.046  33.055  1.00  0.00    -0.344 N 
HETATM    5  C   LIG     1       3.364  43.643  31.798  1.00  0.00     0.093 A 
HETATM    6  I   LIG     1       3.254  44.962  30.155  1.00  0.00    -0.023 I 
HETATM    7  C   LIG     1       3.192  42.271  31.765  1.00  0.00     0.059 A 
HETATM    8  I   LIG     1       2.769  41.086  30.067  1.00  0.00    -0.040 I 
HETATM    9  I   LIG     1       3.960  42.997  35.913  1.00  0.00    -0.023 I 
HETATM   10  H   LIG     1       3.789  45.027  33.370  1.00  0.00     0.167 HD
ENDROOT
TORSDOF 0
ENDMDL
MODEL 3
REMARK VINA RESULT:      -2.9     30.716     31.165
REMARK  0 active torsions:
REMARK  status: ('A' for Active; 'I' for Inactive)
ROOT
HETATM    1  I   LIG     1      23.065  20.634  22.470  1.00  0.00    -0.040 I 
HETATM    2  C   LIG     1      24.453  21.986  21.626  1.00  0.00     0.059 A 
HETATM    3  C   LIG     1      25.426  22.704  22.297  1.00  0.00     0.093 A 
HETATM    4  N   LIG     1      26.121  23.461  21.431  1.00  0.00    -0.344 N 
HETATM    5  C   LIG     1      25.606  23.241  20.210  1.00  0.00     0.093 A 
HETATM    6  I   LIG     1      26.320  24.180  18.460  1.00  0.00    -0.023 I 
HETATM    7  C   LIG     1      24.567  22.330  20.290  1.00  0.00     0.059 A 
HETATM    8  I   LIG     1      23.389  21.606  18.692  1.00  0.00    -0.040 I 
HETATM    9  I   LIG     1      25.813  22.657  24.371  1.00  0.00    -0.023 I 
HETATM   10  H   LIG     1      26.912  24.102  21.665  1.00  0.00     0.167 HD
ENDROOT
TORSDOF 0
ENDMDL
MODEL 4
REMARK VINA RESULT:      -2.9     30.737     31.155
REMARK  0 active torsions:
REMARK  status: ('A' for Active; 'I' for Inactive)
ROOT
HETATM    1  I   LIG     1      23.414  21.604  18.637  1.00  0.00    -0.040 I 
HETATM    2  C   LIG     1      24.581  22.334  20.242  1.00  0.00     0.059 A 
HETATM    3  C   LIG     1      25.611  23.254  20.168  1.00  0.00     0.093 A 
HETATM    4  N   LIG     1      26.120  23.476  21.392  1.00  0.00    -0.344 N 
HETATM    5  C   LIG     1      25.431  22.708  22.254  1.00  0.00     0.093 A 
HETATM    6  I   LIG     1      25.813  22.658  24.329  1.00  0.00    -0.023 I 
HETATM    7  C   LIG     1      24.466  21.984  21.577  1.00  0.00     0.059 A 
HETATM    8  I   LIG     1      23.089  20.615  22.411  1.00  0.00    -0.040 I 
HETATM    9  I   LIG     1      26.321  24.205  18.424  1.00  0.00    -0.023 I 
HETATM   10  H   LIG     1      26.905  24.123  21.629  1.00  0.00     0.167 HD
ENDROOT
TORSDOF 0
ENDMDL
MODEL 5
REMARK VINA RESULT:      -2.7     27.380     27.994
REMARK  0 active torsions:
REMARK  status: ('A' for Active; 'I' for Inactive)
ROOT
HETATM    1  I   LIG     1      29.726  28.207  31.278  1.00  0.00    -0.040 I 
HETATM    2  C   LIG     1      28.872  29.572  32.648  1.00  0.00     0.059 A 
HETATM    3  C   LIG     1      29.183  30.913  32.786  1.00  0.00     0.093 A 
HETATM    4  N   LIG     1      28.436  31.461  33.760  1.00  0.00    -0.344 N 
HETATM    5  C   LIG     1      27.649  30.489  34.252  1.00  0.00     0.093 A 
HETATM    6  I   LIG     1      26.263  30.794  35.814  1.00  0.00    -0.023 I 
HETATM    7  C   LIG     1      27.891  29.301  33.586  1.00  0.00     0.059 A 
HETATM    8  I   LIG     1      26.950  27.440  33.930  1.00  0.00    -0.040 I 
HETATM    9  I   LIG     1      30.606  31.994  31.664  1.00  0.00    -0.023 I 
HETATM   10  H   LIG     1      28.464  32.456  34.076  1.00  0.00     0.167 HD
ENDROOT
TORSDOF 0
ENDMDL
MODEL 6
REMARK VINA RESULT:      -2.7     30.715     31.508
REMARK  0 active torsions:
REMARK  status: ('A' for Active; 'I' for Inactive)
ROOT
HETATM    1  I   LIG     1      27.069  24.077  18.287  1.00  0.00    -0.040 I 
HETATM    2  C   LIG     1      26.197  23.340  20.066  1.00  0.00     0.059 A 
HETATM    3  C   LIG     1      26.651  23.540  21.357  1.00  0.00     0.093 A 
HETATM    4  N   LIG     1      25.841  22.920  22.232  1.00  0.00    -0.344 N 
HETATM    5  C   LIG     1      24.871  22.322  21.520  1.00  0.00     0.093 A 
HETATM    6  I   LIG     1      23.314  21.195  22.392  1.00  0.00    -0.023 I 
HETATM    7  C   LIG     1      25.059  22.560  20.170  1.00  0.00     0.059 A 
HETATM    8  I   LIG     1      23.848  21.871  18.580  1.00  0.00    -0.040 I 
HETATM    9  I   LIG     1      28.354  24.646  21.932  1.00  0.00    -0.023 I 
HETATM   10  H   LIG     1      25.947  22.905  23.271  1.00  0.00     0.167 HD
ENDROOT
TORSDOF 0
ENDMDL
MODEL 7
REMARK VINA RESULT:      -2.7     29.304     29.803
REMARK  0 active torsions:
REMARK  status: ('A' for Active; 'I' for Inactive)
ROOT
HETATM    1  I   LIG     1      28.029  25.033  24.860  1.00  0.00    -0.040 I 
HETATM    2  C   LIG     1      26.585  24.022  26.027  1.00  0.00     0.059 A 
HETATM    3  C   LIG     1      26.369  24.165  27.386  1.00  0.00     0.093 A 
HETATM    4  N   LIG     1      25.368  23.361  27.781  1.00  0.00    -0.344 N 
HETATM    5  C   LIG     1      24.937  22.700  26.693  1.00  0.00     0.093 A 
HETATM    6  I   LIG     1      23.366  21.291  26.734  1.00  0.00    -0.023 I 
HETATM    7  C   LIG     1      25.669  23.084  25.584  1.00  0.00     0.059 A 
HETATM    8  I   LIG     1      25.437  22.381  23.604  1.00  0.00    -0.040 I 
HETATM    9  I   LIG     1      27.421  25.441  28.697  1.00  0.00    -0.023 I 
HETATM   10  H   LIG     1      24.995  23.266  28.752  1.00  0.00     0.167 HD
ENDROOT
TORSDOF 0
ENDMDL
MODEL 8
REMARK VINA RESULT:      -2.6     31.115     31.739
REMARK  0 active torsions:
REMARK  status: ('A' for Active; 'I' for Inactive)
ROOT
HETATM    1  I   LIG     1      28.056  24.538  21.711  1.00  0.00    -0.040 I 
HETATM    2  C   LIG     1      26.718  23.734  20.285  1.00  0.00     0.059 A 
HETATM    3  C   LIG     1      26.801  23.854  18.910  1.00  0.00     0.093 A 
HETATM    4  N   LIG     1      25.774  23.212  18.328  1.00  0.00    -0.344 N 
HETATM    5  C   LIG     1      25.028  22.682  19.313  1.00  0.00     0.093 A 
HETATM    6  I   LIG     1      23.275  21.558  18.969  1.00  0.00    -0.023 I 
HETATM    7  C   LIG     1      25.583  22.985  20.544  1.00  0.00     0.059 A 
HETATM    8  I   LIG     1      24.847  22.417  22.442  1.00  0.00    -0.040 I 
HETATM    9  I   LIG     1      28.296  24.876  17.826  1.00  0.00    -0.023 I 
HETATM   10  H   LIG     1      25.588  23.140  17.303  1.00  0.00     0.167 HD
ENDROOT
TORSDOF 0
ENDMDL
MODEL 9
REMARK VINA RESULT:      -2.6     28.278     28.986
REMARK  0 active torsions:
REMARK  status: ('A' for Active; 'I' for Inactive)
ROOT
HETATM    1  I   LIG     1      29.822  27.798  28.244  1.00  0.00    -0.040 I 
HETATM    2  C   LIG     1      28.514  27.400  29.857  1.00  0.00     0.059 A 
HETATM    3  C   LIG     1      27.521  26.438  29.902  1.00  0.00     0.093 A 
HETATM    4  N   LIG     1      26.894  26.479  31.090  1.00  0.00    -0.344 N 
HETATM    5  C   LIG     1      27.470  27.457  31.810  1.00  0.00     0.093 A 
HETATM    6  I   LIG     1      26.874  27.963  33.770  1.00  0.00    -0.023 I 
HETATM    7  C   LIG     1      28.481  28.052  31.077  1.00  0.00     0.059 A 
HETATM    8  I   LIG     1      29.728  29.642  31.696  1.00  0.00    -0.040 I 
HETATM    9  I   LIG     1      27.020  25.078  28.368  1.00  0.00    -0.023 I 
HETATM   10  H   LIG     1      26.105  25.865  31.395  1.00  0.00     0.167 HD
ENDROOT
TORSDOF 0
ENDMDL
MODEL 10
REMARK VINA RESULT:      -2.6     28.286     28.866
REMARK  0 active torsions:
REMARK  status: ('A' for Active; 'I' for Inactive)
ROOT
HETATM    1  I   LIG     1      29.715  29.611  31.605  1.00  0.00    -0.040 I 
HETATM    2  C   LIG     1      28.464  28.014  31.010  1.00  0.00     0.059 A 
HETATM    3  C   LIG     1      27.456  27.428  31.754  1.00  0.00     0.093 A 
HETATM    4  N   LIG     1      26.876  26.442  31.048  1.00  0.00    -0.344 N 
HETATM    5  C   LIG     1      27.500  26.385  29.859  1.00  0.00     0.093 A 
HETATM    6  I   LIG     1      26.992  25.005  28.344  1.00  0.00    -0.023 I 
HETATM    7  C   LIG     1      28.493  27.346  29.797  1.00  0.00     0.059 A 
HETATM    8  I   LIG     1      29.795  27.723  28.176  1.00  0.00    -0.040 I 
HETATM    9  I   LIG     1      26.868  27.959  33.709  1.00  0.00    -0.023 I 
HETATM   10  H   LIG     1      26.089  25.833  31.366  1.00  0.00     0.167 HD
ENDROOT
TORSDOF 0
ENDMDL
MODEL 11
REMARK VINA RESULT:      -2.6     18.042     18.873
REMARK  0 active torsions:
REMARK  status: ('A' for Active; 'I' for Inactive)
ROOT
HETATM    1  I   LIG     1      16.506  36.518  23.749  1.00  0.00    -0.040 I 
HETATM    2  C   LIG     1      17.214  36.754  21.772  1.00  0.00     0.059 A 
HETATM    3  C   LIG     1      16.957  35.925  20.694  1.00  0.00     0.093 A 
HETATM    4  N   LIG     1      17.576  36.392  19.596  1.00  0.00    -0.344 N 
HETATM    5  C   LIG     1      18.230  37.510  19.954  1.00  0.00     0.093 A 
HETATM    6  I   LIG     1      19.381  38.664  18.613  1.00  0.00    -0.023 I 
HETATM    7  C   LIG     1      18.029  37.768  21.298  1.00  0.00     0.059 A 
HETATM    8  I   LIG     1      18.810  39.386  22.410  1.00  0.00    -0.040 I 
HETATM    9  I   LIG     1      15.775  34.177  20.708  1.00  0.00    -0.023 I 
HETATM   10  H   LIG     1      17.554  35.964  18.643  1.00  0.00     0.167 HD
ENDROOT
TORSDOF 0
ENDMDL
MODEL 12
REMARK VINA RESULT:      -2.6     29.285     30.145
REMARK  0 active torsions:
REMARK  status: ('A' for Active; 'I' for Inactive)
ROOT
HETATM    1  I   LIG     1      28.456  24.125  24.360  1.00  0.00    -0.040 I 
HETATM    2  C   LIG     1      27.607  24.601  26.237  1.00  0.00     0.059 A 
HETATM    3  C   LIG     1      26.401  24.146  26.741  1.00  0.00     0.093 A 
HETATM    4  N   LIG     1      26.190  24.660  27.965  1.00  0.00    -0.344 N 
HETATM    5  C   LIG     1      27.245  25.441  28.255  1.00  0.00     0.093 A 
HETATM    6  I   LIG     1      27.441  26.506  30.066  1.00  0.00    -0.023 I 
HETATM    7  C   LIG     1      28.147  25.429  27.205  1.00  0.00     0.059 A 
HETATM    8  I   LIG     1      29.983  26.469  27.099  1.00  0.00    -0.040 I 
HETATM    9  I   LIG     1      25.052  22.839  25.780  1.00  0.00    -0.023 I 
HETATM   10  H   LIG     1      25.361  24.486  28.575  1.00  0.00     0.167 HD
ENDROOT
TORSDOF 0
ENDMDL
MODEL 13
REMARK VINA RESULT:      -2.6     29.235     29.932
REMARK  0 active torsions:
REMARK  status: ('A' for Active; 'I' for Inactive)
ROOT
HETATM    1  I   LIG     1      29.938  26.555  27.205  1.00  0.00    -0.040 I 
HETATM    2  C   LIG     1      28.117  25.483  27.279  1.00  0.00     0.059 A 
HETATM    3  C   LIG     1      27.220  25.443  28.331  1.00  0.00     0.093 A 
HETATM    4  N   LIG     1      26.176  24.658  28.017  1.00  0.00    -0.344 N 
HETATM    5  C   LIG     1      26.390  24.190  26.776  1.00  0.00     0.093 A 
HETATM    6  I   LIG     1      25.057  22.897  25.774  1.00  0.00    -0.023 I 
HETATM    7  C   LIG     1      27.586  24.681  26.284  1.00  0.00     0.059 A 
HETATM    8  I   LIG     1      28.437  24.287  24.389  1.00  0.00    -0.040 I 
HETATM    9  I   LIG     1      27.406  26.446  30.179  1.00  0.00    -0.023 I 
HETATM   10  H   LIG     1      25.353  24.449  28.625  1.00  0.00     0.167 HD
ENDROOT
TORSDOF 0
ENDMDL
MODEL 14
REMARK VINA RESULT:      -2.5     30.484     31.340
REMARK  0 active torsions:
REMARK  status: ('A' for Active; 'I' for Inactive)
ROOT
HETATM    1  I   LIG     1      27.973  24.066  22.136  1.00  0.00    -0.040 I 
HETATM    2  C   LIG     1      26.185  23.120  21.523  1.00  0.00     0.059 A 
HETATM    3  C   LIG     1      25.202  22.593  22.342  1.00  0.00     0.093 A 
HETATM    4  N   LIG     1      24.212  22.072  21.597  1.00  0.00    -0.344 N 
HETATM    5  C   LIG     1      24.546  22.256  20.308  1.00  0.00     0.093 A 
HETATM    6  I   LIG     1      23.342  21.624  18.694  1.00  0.00    -0.023 I 
HETATM    7  C   LIG     1      25.765  22.903  20.222  1.00  0.00     0.059 A 
HETATM    8  I   LIG     1      26.786  23.454  18.455  1.00  0.00    -0.040 I 
HETATM    9  I   LIG     1      25.199  22.581  24.452  1.00  0.00    -0.023 I 
HETATM   10  H   LIG     1      23.346  21.610  21.954  1.00  0.00     0.167 HD
ENDROOT
TORSDOF 0
ENDMDL
MODEL 15
REMARK VINA RESULT:      -2.5     29.184     30.012
REMARK  0 active torsions:
REMARK  status: ('A' for Active; 'I' for Inactive)
ROOT
HETATM    1  I   LIG     1      27.097  21.034  28.652  1.00  0.00    -0.040 I 
HETATM    2  C   LIG     1      26.917  23.138  28.559  1.00  0.00     0.059 A 
HETATM    3  C   LIG     1      26.232  23.871  27.607  1.00  0.00     0.093 A 
HETATM    4  N   LIG     1      26.338  25.184  27.872  1.00  0.00    -0.344 N 
HETATM    5  C   LIG     1      27.084  25.306  28.983  1.00  0.00     0.093 A 
HETATM    6  I   LIG     1      27.573  27.163  29.858  1.00  0.00    -0.023 I 
HETATM    7  C   LIG     1      27.462  24.056  29.440  1.00  0.00     0.059 A 
HETATM    8  I   LIG     1      28.639  23.630  31.143  1.00  0.00    -0.040 I 
HETATM    9  I   LIG     1      25.161  23.100  25.960  1.00  0.00    -0.023 I 
HETATM   10  H   LIG     1      25.920  25.964  27.317  1.00  0.00     0.167 HD
ENDROOT
TORSDOF 0
ENDMDL
MODEL 16
REMARK VINA RESULT:      -2.5     31.465     32.748
REMARK  0 active torsions:
REMARK  status: ('A' for Active; 'I' for Inactive)
ROOT
HETATM    1  I   LIG     1      22.863  19.484  18.627  1.00  0.00    -0.040 I 
HETATM    2  C   LIG     1      24.361  20.960  18.843  1.00  0.00     0.059 A 
HETATM    3  C   LIG     1      24.373  22.003  19.752  1.00  0.00     0.093 A 
HETATM    4  N   LIG     1      25.487  22.738  19.594  1.00  0.00    -0.344 N 
HETATM    5  C   LIG     1      26.191  22.183  18.594  1.00  0.00     0.093 A 
HETATM    6  I   LIG     1      28.042  22.937  17.917  1.00  0.00    -0.023 I 
HETATM    7  C   LIG     1      25.524  21.075  18.101  1.00  0.00     0.059 A 
HETATM    8  I   LIG     1      26.153  19.810  16.530  1.00  0.00    -0.040 I 
HETATM    9  I   LIG     1      22.894  22.426  21.197  1.00  0.00    -0.023 I 
HETATM   10  H   LIG     1      25.753  23.585  20.146  1.00  0.00     0.167 HD
ENDROOT
TORSDOF 0
ENDMDL
MODEL 17
REMARK VINA RESULT:      -2.5     29.226     29.868
REMARK  0 active torsions:
REMARK  status: ('A' for Active; 'I' for Inactive)
ROOT
HETATM    1  I   LIG     1      28.567  23.724  31.514  1.00  0.00    -0.040 I 
HETATM    2  C   LIG     1      27.419  23.968  29.755  1.00  0.00     0.059 A 
HETATM    3  C   LIG     1      27.080  25.162  29.145  1.00  0.00     0.093 A 
HETATM    4  N   LIG     1      26.343  24.925  28.046  1.00  0.00    -0.344 N 
HETATM    5  C   LIG     1      26.202  23.592  27.943  1.00  0.00     0.093 A 
HETATM    6  I   LIG     1      25.125  22.654  26.389  1.00  0.00    -0.023 I 
HETATM    7  C   LIG     1      26.857  22.964  28.987  1.00  0.00     0.059 A 
HETATM    8  I   LIG     1      26.977  20.883  29.340  1.00  0.00    -0.040 I 
HETATM    9  I   LIG     1      27.612  27.099  29.792  1.00  0.00    -0.023 I 
HETATM   10  H   LIG     1      25.951  25.643  27.396  1.00  0.00     0.167 HD
ENDROOT
TORSDOF 0
ENDMDL
MODEL 18
REMARK VINA RESULT:      -2.4     27.671     28.303
REMARK  0 active torsions:
REMARK  status: ('A' for Active; 'I' for Inactive)
ROOT
HETATM    1  I   LIG     1      29.140  31.066  33.249  1.00  0.00    -0.040 I 
HETATM    2  C   LIG     1      28.213  29.301  33.952  1.00  0.00     0.059 A 
HETATM    3  C   LIG     1      27.175  29.214  34.863  1.00  0.00     0.093 A 
HETATM    4  N   LIG     1      26.848  27.927  35.067  1.00  0.00    -0.344 N 
HETATM    5  C   LIG     1      27.663  27.183  34.300  1.00  0.00     0.093 A 
HETATM    6  I   LIG     1      27.589  25.075  34.228  1.00  0.00    -0.023 I 
HETATM    7  C   LIG     1      28.525  28.001  33.592  1.00  0.00     0.059 A 
HETATM    8  I   LIG     1      30.023  27.391  32.231  1.00  0.00    -0.040 I 
HETATM    9  I   LIG     1      26.209  30.827  35.821  1.00  0.00    -0.023 I 
HETATM   10  H   LIG     1      26.100  27.572  35.704  1.00  0.00     0.167 HD
ENDROOT
TORSDOF 0
ENDMDL
MODEL 19
REMARK VINA RESULT:      -2.3     30.545     31.290
REMARK  0 active torsions:
REMARK  status: ('A' for Active; 'I' for Inactive)
ROOT
HETATM    1  I   LIG     1      23.185  22.246  21.454  1.00  0.00    -0.040 I 
HETATM    2  C   LIG     1      25.203  22.783  21.778  1.00  0.00     0.059 A 
HETATM    3  C   LIG     1      26.131  23.143  20.817  1.00  0.00     0.093 A 
HETATM    4  N   LIG     1      27.312  23.418  21.396  1.00  0.00    -0.344 N 
HETATM    5  C   LIG     1      27.157  23.238  22.719  1.00  0.00     0.093 A 
HETATM    6  I   LIG     1      28.706  23.531  24.122  1.00  0.00    -0.023 I 
HETATM    7  C   LIG     1      25.860  22.843  22.995  1.00  0.00     0.059 A 
HETATM    8  I   LIG     1      25.042  22.416  24.896  1.00  0.00    -0.040 I 
HETATM    9  I   LIG     1      25.800  23.264  18.736  1.00  0.00    -0.023 I 
HETATM   10  H   LIG     1      28.187  23.715  20.909  1.00  0.00     0.167 HD
ENDROOT
TORSDOF 0
ENDMDL
MODEL 20
REMARK VINA RESULT:      -2.3     29.662     30.430
REMARK  0 active torsions:
REMARK  status: ('A' for Active; 'I' for Inactive)
ROOT
HETATM    1  I   LIG     1      28.481  25.276  24.391  1.00  0.00    -0.040 I 
HETATM    2  C   LIG     1      26.875  23.958  24.784  1.00  0.00     0.059 A 
HETATM    3  C   LIG     1      26.247  23.754  25.999  1.00  0.00     0.093 A 
HETATM    4  N   LIG     1      25.269  22.842  25.866  1.00  0.00    -0.344 N 
HETATM    5  C   LIG     1      25.261  22.455  24.578  1.00  0.00     0.093 A 
HETATM    6  I   LIG     1      23.916  21.025  23.803  1.00  0.00    -0.023 I 
HETATM    7  C   LIG     1      26.244  23.126  23.875  1.00  0.00     0.059 A 
HETATM    8  I   LIG     1      26.696  22.925  21.820  1.00  0.00    -0.040 I 
HETATM    9  I   LIG     1      26.709  24.704  27.826  1.00  0.00    -0.023 I 
HETATM   10  H   LIG     1      24.636  22.497  26.621  1.00  0.00     0.167 HD
ENDROOT
TORSDOF 0
ENDMDL
