MODEL 1
REMARK VINA RESULT:      -5.1      0.000      0.000
REMARK  1 active torsions:
REMARK  status: ('A' for Active; 'I' for Inactive)
REMARK    1  A    between atoms: C_2  and  C_3 
ROOT
HETATM    1 CL   LIG     1      18.279  36.623  20.266  1.00  0.00    -0.080 Cl
HETATM    2  C   LIG     1      16.924  36.033  21.224  1.00  0.00     0.091 C 
HETATM    3  C   LIG     1      15.922  35.344  20.657  1.00  0.00     0.126 C 
HETATM    4 CL   LIG     1      14.599  34.678  21.609  1.00  0.00    -0.069 Cl
HETATM    5 CL   LIG     1      15.886  35.040  18.925  1.00  0.00    -0.069 Cl
ENDROOT
BRANCH   2   6
HETATM    6  C   LIG     1      16.968  36.286  22.676  1.00  0.00     0.091 C 
HETATM    7  C   LIG     1      16.878  37.528  23.180  1.00  0.00     0.126 C 
HETATM    8 CL   LIG     1      16.940  37.817  24.914  1.00  0.00    -0.069 Cl
HETATM    9 CL   LIG     1      16.719  38.940  22.142  1.00  0.00    -0.069 Cl
HETATM   10 CL   LIG     1      17.207  34.894  23.727  1.00  0.00    -0.080 Cl
ENDBRANCH   2   6
TORSDOF 1
ENDMDL
MODEL 2
REMARK VINA RESULT:      -5.1      0.020      4.428
REMARK  1 active torsions:
REMARK  status: ('A' for Active; 'I' for Inactive)
REMARK    1  A    between atoms: C_2  and  C_3 
ROOT
HETATM    1 CL   LIG     1      17.189  34.891  23.729  1.00  0.00    -0.080 Cl
HETATM    2  C   LIG     1      16.971  36.282  22.672  1.00  0.00     0.091 C 
HETATM    3  C   LIG     1      16.893  37.526  23.171  1.00  0.00     0.126 C 
HETATM    4 CL   LIG     1      16.755  38.937  22.126  1.00  0.00    -0.069 Cl
HETATM    5 CL   LIG     1      16.956  37.822  24.903  1.00  0.00    -0.069 Cl
ENDROOT
BRANCH   2   6
HETATM    6  C   LIG     1      16.928  36.024  21.221  1.00  0.00     0.091 C 
HETATM    7  C   LIG     1      15.920  35.340  20.654  1.00  0.00     0.126 C 
HETATM    8 CL   LIG     1      15.885  35.031  18.923  1.00  0.00    -0.069 Cl
HETATM    9 CL   LIG     1      14.590  34.689  21.608  1.00  0.00    -0.069 Cl
HETATM   10 CL   LIG     1      18.288  36.597  20.263  1.00  0.00    -0.080 Cl
ENDBRANCH   2   6
TORSDOF 1
ENDMDL
MODEL 3
REMARK VINA RESULT:      -5.1      2.621      4.245
REMARK  1 active torsions:
REMARK  status: ('A' for Active; 'I' for Inactive)
REMARK    1  A    between atoms: C_2  and  C_3 
ROOT
HETATM    1 CL   LIG     1      17.304  38.241  26.046  1.00  0.00    -0.080 Cl
HETATM    2  C   LIG     1      17.226  37.210  24.621  1.00  0.00     0.091 C 
HETATM    3  C   LIG     1      17.302  35.874  24.728  1.00  0.00     0.126 C 
HETATM    4 CL   LIG     1      17.147  34.822  23.324  1.00  0.00    -0.069 Cl
HETATM    5 CL   LIG     1      17.532  35.092  26.286  1.00  0.00    -0.069 Cl
ENDROOT
BRANCH   2   6
HETATM    6  C   LIG     1      17.024  37.875  23.321  1.00  0.00     0.091 C 
HETATM    7  C   LIG     1      17.997  38.595  22.737  1.00  0.00     0.126 C 
HETATM    8 CL   LIG     1      17.741  39.390  21.189  1.00  0.00    -0.069 Cl
HETATM    9 CL   LIG     1      19.573  38.808  23.492  1.00  0.00    -0.069 Cl
HETATM   10 CL   LIG     1      15.430  37.740  22.588  1.00  0.00    -0.080 Cl
ENDBRANCH   2   6
TORSDOF 1
ENDMDL
MODEL 4
REMARK VINA RESULT:      -5.1      0.820      4.090
REMARK  1 active torsions:
REMARK  status: ('A' for Active; 'I' for Inactive)
REMARK    1  A    between atoms: C_2  and  C_3 
ROOT
HETATM    1 CL   LIG     1      16.914  38.976  22.369  1.00  0.00    -0.080 Cl
HETATM    2  C   LIG     1      16.834  37.241  22.657  1.00  0.00     0.091 C 
HETATM    3  C   LIG     1      17.292  36.706  23.800  1.00  0.00     0.126 C 
HETATM    4 CL   LIG     1      17.150  34.985  24.140  1.00  0.00    -0.069 Cl
HETATM    5 CL   LIG     1      18.037  37.704  25.042  1.00  0.00    -0.069 Cl
ENDROOT
BRANCH   2   6
HETATM    6  C   LIG     1      16.201  36.415  21.613  1.00  0.00     0.091 C 
HETATM    7  C   LIG     1      16.866  36.041  20.507  1.00  0.00     0.126 C 
HETATM    8 CL   LIG     1      16.096  35.062  19.265  1.00  0.00    -0.069 Cl
HETATM    9 CL   LIG     1      18.534  36.525  20.221  1.00  0.00    -0.069 Cl
HETATM   10 CL   LIG     1      14.509  35.988  21.844  1.00  0.00    -0.080 Cl
ENDBRANCH   2   6
TORSDOF 1
ENDMDL
MODEL 5
REMARK VINA RESULT:      -5.1      1.544      4.037
REMARK  1 active torsions:
REMARK  status: ('A' for Active; 'I' for Inactive)
REMARK    1  A    between atoms: C_2  and  C_3 
ROOT
HETATM    1 CL   LIG     1      16.328  35.364  21.537  1.00  0.00    -0.080 Cl
HETATM    2  C   LIG     1      17.059  36.613  22.539  1.00  0.00     0.091 C 
HETATM    3  C   LIG     1      17.366  36.379  23.825  1.00  0.00     0.126 C 
HETATM    4 CL   LIG     1      18.170  37.588  24.821  1.00  0.00    -0.069 Cl
HETATM    5 CL   LIG     1      17.007  34.833  24.584  1.00  0.00    -0.069 Cl
ENDROOT
BRANCH   2   6
HETATM    6  C   LIG     1      17.363  37.902  21.891  1.00  0.00     0.091 C 
HETATM    7  C   LIG     1      18.182  37.984  20.829  1.00  0.00     0.126 C 
HETATM    8 CL   LIG     1      18.544  39.529  20.071  1.00  0.00    -0.069 Cl
HETATM    9 CL   LIG     1      18.962  36.559  20.149  1.00  0.00    -0.069 Cl
HETATM   10 CL   LIG     1      16.656  39.346  22.606  1.00  0.00    -0.080 Cl
ENDBRANCH   2   6
TORSDOF 1
ENDMDL
MODEL 6
REMARK VINA RESULT:      -5.1      2.621      4.138
REMARK  1 active torsions:
REMARK  status: ('A' for Active; 'I' for Inactive)
REMARK    1  A    between atoms: C_2  and  C_3 
ROOT
HETATM    1 CL   LIG     1      15.403  37.709  22.674  1.00  0.00    -0.080 Cl
HETATM    2  C   LIG     1      17.009  37.835  23.385  1.00  0.00     0.091 C 
HETATM    3  C   LIG     1      17.963  38.585  22.812  1.00  0.00     0.126 C 
HETATM    4 CL   LIG     1      19.550  38.788  23.548  1.00  0.00    -0.069 Cl
HETATM    5 CL   LIG     1      17.673  39.435  21.300  1.00  0.00    -0.069 Cl
ENDROOT
BRANCH   2   6
HETATM    6  C   LIG     1      17.239  37.126  24.657  1.00  0.00     0.091 C 
HETATM    7  C   LIG     1      17.315  35.786  24.715  1.00  0.00     0.126 C 
HETATM    8 CL   LIG     1      17.582  34.950  26.239  1.00  0.00    -0.069 Cl
HETATM    9 CL   LIG     1      17.129  34.784  23.279  1.00  0.00    -0.069 Cl
HETATM   10 CL   LIG     1      17.348  38.105  26.115  1.00  0.00    -0.080 Cl
ENDBRANCH   2   6
TORSDOF 1
ENDMDL
MODEL 7
REMARK VINA RESULT:      -5.0      0.671      4.102
REMARK  1 active torsions:
REMARK  status: ('A' for Active; 'I' for Inactive)
REMARK    1  A    between atoms: C_2  and  C_3 
ROOT
HETATM    1 CL   LIG     1      16.978  39.059  22.283  1.00  0.00    -0.080 Cl
HETATM    2  C   LIG     1      17.086  37.309  22.441  1.00  0.00     0.091 C 
HETATM    3  C   LIG     1      17.143  36.724  23.648  1.00  0.00     0.126 C 
HETATM    4 CL   LIG     1      17.172  34.973  23.829  1.00  0.00    -0.069 Cl
HETATM    5 CL   LIG     1      17.163  37.677  25.126  1.00  0.00    -0.069 Cl
ENDROOT
BRANCH   2   6
HETATM    6  C   LIG     1      17.060  36.520  21.196  1.00  0.00     0.091 C 
HETATM    7  C   LIG     1      15.948  35.890  20.781  1.00  0.00     0.126 C 
HETATM    8 CL   LIG     1      15.932  34.944  19.299  1.00  0.00    -0.069 Cl
HETATM    9 CL   LIG     1      14.450  35.950  21.705  1.00  0.00    -0.069 Cl
HETATM   10 CL   LIG     1      18.569  36.382  20.301  1.00  0.00    -0.080 Cl
ENDBRANCH   2   6
TORSDOF 1
ENDMDL
MODEL 8
REMARK VINA RESULT:      -5.0      1.475      3.287
REMARK  1 active torsions:
REMARK  status: ('A' for Active; 'I' for Inactive)
REMARK    1  A    between atoms: C_2  and  C_3 
ROOT
HETATM    1 CL   LIG     1      16.123  35.808  21.171  1.00  0.00    -0.080 Cl
HETATM    2  C   LIG     1      17.285  37.080  21.537  1.00  0.00     0.091 C 
HETATM    3  C   LIG     1      18.193  37.470  20.629  1.00  0.00     0.126 C 
HETATM    4 CL   LIG     1      19.311  38.793  20.946  1.00  0.00    -0.069 Cl
HETATM    5 CL   LIG     1      18.301  36.698  19.052  1.00  0.00    -0.069 Cl
ENDROOT
BRANCH   2   6
HETATM    6  C   LIG     1      17.181  37.725  22.858  1.00  0.00     0.091 C 
HETATM    7  C   LIG     1      17.213  37.014  23.997  1.00  0.00     0.126 C 
HETATM    8 CL   LIG     1      17.080  37.795  25.567  1.00  0.00    -0.069 Cl
HETATM    9 CL   LIG     1      17.365  35.260  23.990  1.00  0.00    -0.069 Cl
HETATM   10 CL   LIG     1      16.948  39.470  22.883  1.00  0.00    -0.080 Cl
ENDBRANCH   2   6
TORSDOF 1
ENDMDL
MODEL 9
REMARK VINA RESULT:      -5.0      1.995      4.913
REMARK  1 active torsions:
REMARK  status: ('A' for Active; 'I' for Inactive)
REMARK    1  A    between atoms: C_2  and  C_3 
ROOT
HETATM    1 CL   LIG     1      15.425  37.778  22.816  1.00  0.00    -0.080 Cl
HETATM    2  C   LIG     1      17.154  38.107  22.769  1.00  0.00     0.091 C 
HETATM    3  C   LIG     1      17.847  38.334  23.896  1.00  0.00     0.126 C 
HETATM    4 CL   LIG     1      19.589  38.587  23.878  1.00  0.00    -0.069 Cl
HETATM    5 CL   LIG     1      17.055  38.364  25.466  1.00  0.00    -0.069 Cl
ENDROOT
BRANCH   2   6
HETATM    6  C   LIG     1      17.809  38.072  21.449  1.00  0.00     0.091 C 
HETATM    7  C   LIG     1      17.916  36.934  20.743  1.00  0.00     0.126 C 
HETATM    8 CL   LIG     1      18.708  36.904  19.173  1.00  0.00    -0.069 Cl
HETATM    9 CL   LIG     1      17.296  35.404  21.352  1.00  0.00    -0.069 Cl
HETATM   10 CL   LIG     1      18.506  39.577  20.858  1.00  0.00    -0.080 Cl
ENDBRANCH   2   6
TORSDOF 1
ENDMDL
MODEL 10
REMARK VINA RESULT:      -4.8      1.188      3.596
REMARK  1 active torsions:
REMARK  status: ('A' for Active; 'I' for Inactive)
REMARK    1  A    between atoms: C_2  and  C_3 
ROOT
HETATM    1 CL   LIG     1      18.878  36.366  19.899  1.00  0.00    -0.080 Cl
HETATM    2  C   LIG     1      17.670  36.706  21.134  1.00  0.00     0.091 C 
HETATM    3  C   LIG     1      17.477  37.954  21.590  1.00  0.00     0.126 C 
HETATM    4 CL   LIG     1      16.221  38.328  22.766  1.00  0.00    -0.069 Cl
HETATM    5 CL   LIG     1      18.453  39.299  21.014  1.00  0.00    -0.069 Cl
ENDROOT
BRANCH   2   6
HETATM    6  C   LIG     1      16.852  35.574  21.604  1.00  0.00     0.091 C 
HETATM    7  C   LIG     1      15.974  34.953  20.798  1.00  0.00     0.126 C 
HETATM    8 CL   LIG     1      14.998  33.608  21.373  1.00  0.00    -0.069 Cl
HETATM    9 CL   LIG     1      15.728  35.461  19.130  1.00  0.00    -0.069 Cl
HETATM   10 CL   LIG     1      17.026  35.103  23.291  1.00  0.00    -0.080 Cl
ENDBRANCH   2   6
TORSDOF 1
ENDMDL
MODEL 11
REMARK VINA RESULT:      -4.6      1.920      4.116
REMARK  1 active torsions:
REMARK  status: ('A' for Active; 'I' for Inactive)
REMARK    1  A    between atoms: C_2  and  C_3 
ROOT
HETATM    1 CL   LIG     1      18.267  38.418  23.663  1.00  0.00    -0.080 Cl
HETATM    2  C   LIG     1      17.581  36.830  23.995  1.00  0.00     0.091 C 
HETATM    3  C   LIG     1      17.706  36.261  25.205  1.00  0.00     0.126 C 
HETATM    4 CL   LIG     1      16.961  34.711  25.581  1.00  0.00    -0.069 Cl
HETATM    5 CL   LIG     1      18.601  37.048  26.498  1.00  0.00    -0.069 Cl
ENDROOT
BRANCH   2   6
HETATM    6  C   LIG     1      16.827  36.183  22.907  1.00  0.00     0.091 C 
HETATM    7  C   LIG     1      15.718  36.737  22.388  1.00  0.00     0.126 C 
HETATM    8 CL   LIG     1      14.822  35.950  21.096  1.00  0.00    -0.069 Cl
HETATM    9 CL   LIG     1      15.081  38.266  22.984  1.00  0.00    -0.069 Cl
HETATM   10 CL   LIG     1      17.403  34.615  22.353  1.00  0.00    -0.080 Cl
ENDBRANCH   2   6
TORSDOF 1
ENDMDL
MODEL 12
REMARK VINA RESULT:      -4.4      0.617      2.024
REMARK  1 active torsions:
REMARK  status: ('A' for Active; 'I' for Inactive)
REMARK    1  A    between atoms: C_2  and  C_3 
ROOT
HETATM    1 CL   LIG     1      14.458  35.477  21.753  1.00  0.00    -0.080 Cl
HETATM    2  C   LIG     1      16.173  35.873  21.702  1.00  0.00     0.091 C 
HETATM    3  C   LIG     1      16.860  35.834  20.549  1.00  0.00     0.126 C 
HETATM    4 CL   LIG     1      18.555  36.302  20.463  1.00  0.00    -0.069 Cl
HETATM    5 CL   LIG     1      16.094  35.338  19.045  1.00  0.00    -0.069 Cl
ENDROOT
BRANCH   2   6
HETATM    6  C   LIG     1      16.803  36.295  22.966  1.00  0.00     0.091 C 
HETATM    7  C   LIG     1      17.031  37.589  23.245  1.00  0.00     0.126 C 
HETATM    8 CL   LIG     1      17.791  38.079  24.754  1.00  0.00    -0.069 Cl
HETATM    9 CL   LIG     1      16.607  38.869  22.113  1.00  0.00    -0.069 Cl
HETATM   10 CL   LIG     1      17.306  35.025  24.076  1.00  0.00    -0.080 Cl
ENDBRANCH   2   6
TORSDOF 1
ENDMDL
MODEL 13
REMARK VINA RESULT:      -4.3      1.316      3.780
REMARK  1 active torsions:
REMARK  status: ('A' for Active; 'I' for Inactive)
REMARK    1  A    between atoms: C_2  and  C_3 
ROOT
HETATM    1 CL   LIG     1      19.016  36.511  19.849  1.00  0.00    -0.080 Cl
HETATM    2  C   LIG     1      17.584  36.717  20.852  1.00  0.00     0.091 C 
HETATM    3  C   LIG     1      17.443  37.790  21.647  1.00  0.00     0.126 C 
HETATM    4 CL   LIG     1      15.985  38.054  22.598  1.00  0.00    -0.069 Cl
HETATM    5 CL   LIG     1      18.701  39.014  21.763  1.00  0.00    -0.069 Cl
ENDROOT
BRANCH   2   6
HETATM    6  C   LIG     1      16.532  35.690  20.742  1.00  0.00     0.091 C 
HETATM    7  C   LIG     1      16.211  34.893  21.774  1.00  0.00     0.126 C 
HETATM    8 CL   LIG     1      14.960  33.666  21.627  1.00  0.00    -0.069 Cl
HETATM    9 CL   LIG     1      17.035  35.009  23.325  1.00  0.00    -0.069 Cl
HETATM   10 CL   LIG     1      15.751  35.506  19.175  1.00  0.00    -0.080 Cl
ENDBRANCH   2   6
TORSDOF 1
ENDMDL
MODEL 14
REMARK VINA RESULT:      -4.1      1.846      4.540
REMARK  1 active torsions:
REMARK  status: ('A' for Active; 'I' for Inactive)
REMARK    1  A    between atoms: C_2  and  C_3 
ROOT
HETATM    1 CL   LIG     1      17.985  37.804  24.837  1.00  0.00    -0.080 Cl
HETATM    2  C   LIG     1      17.715  38.202  23.143  1.00  0.00     0.091 C 
HETATM    3  C   LIG     1      18.669  38.797  22.410  1.00  0.00     0.126 C 
HETATM    4 CL   LIG     1      18.448  39.131  20.696  1.00  0.00    -0.069 Cl
HETATM    5 CL   LIG     1      20.214  39.254  23.117  1.00  0.00    -0.069 Cl
ENDROOT
BRANCH   2   6
HETATM    6  C   LIG     1      16.420  37.808  22.559  1.00  0.00     0.091 C 
HETATM    7  C   LIG     1      16.173  36.544  22.177  1.00  0.00     0.126 C 
HETATM    8 CL   LIG     1      14.627  36.088  21.473  1.00  0.00    -0.069 Cl
HETATM    9 CL   LIG     1      17.383  35.275  22.332  1.00  0.00    -0.069 Cl
HETATM   10 CL   LIG     1      15.226  39.078  22.322  1.00  0.00    -0.080 Cl
ENDBRANCH   2   6
TORSDOF 1
ENDMDL
MODEL 15
REMARK VINA RESULT:      -3.9      2.073      4.589
REMARK  1 active torsions:
REMARK  status: ('A' for Active; 'I' for Inactive)
REMARK    1  A    between atoms: C_2  and  C_3 
ROOT
HETATM    1 CL   LIG     1      19.682  38.888  23.517  1.00  0.00    -0.080 Cl
HETATM    2  C   LIG     1      18.180  38.410  22.731  1.00  0.00     0.091 C 
HETATM    3  C   LIG     1      17.042  38.281  23.432  1.00  0.00     0.126 C 
HETATM    4 CL   LIG     1      15.515  37.882  22.653  1.00  0.00    -0.069 Cl
HETATM    5 CL   LIG     1      17.006  38.532  25.172  1.00  0.00    -0.069 Cl
ENDROOT
BRANCH   2   6
HETATM    6  C   LIG     1      18.220  38.210  21.272  1.00  0.00     0.091 C 
HETATM    7  C   LIG     1      18.016  37.003  20.718  1.00  0.00     0.126 C 
HETATM    8 CL   LIG     1      18.074  36.776  18.975  1.00  0.00    -0.069 Cl
HETATM    9 CL   LIG     1      17.706  35.574  21.698  1.00  0.00    -0.069 Cl
HETATM   10 CL   LIG     1      18.607  39.611  20.279  1.00  0.00    -0.080 Cl
ENDBRANCH   2   6
TORSDOF 1
ENDMDL
MODEL 16
REMARK VINA RESULT:      -3.8      2.527      4.301
REMARK  1 active torsions:
REMARK  status: ('A' for Active; 'I' for Inactive)
REMARK    1  A    between atoms: C_2  and  C_3 
ROOT
HETATM    1 CL   LIG     1      17.140  34.850  23.130  1.00  0.00    -0.080 Cl
HETATM    2  C   LIG     1      17.333  36.236  24.198  1.00  0.00     0.091 C 
HETATM    3  C   LIG     1      17.487  36.075  25.522  1.00  0.00     0.126 C 
HETATM    4 CL   LIG     1      17.760  37.442  26.597  1.00  0.00    -0.069 Cl
HETATM    5 CL   LIG     1      17.454  34.478  26.258  1.00  0.00    -0.069 Cl
ENDROOT
BRANCH   2   6
HETATM    6  C   LIG     1      17.368  37.569  23.569  1.00  0.00     0.091 C 
HETATM    7  C   LIG     1      16.345  38.029  22.829  1.00  0.00     0.126 C 
HETATM    8 CL   LIG     1      16.402  39.618  22.077  1.00  0.00    -0.069 Cl
HETATM    9 CL   LIG     1      14.901  37.063  22.544  1.00  0.00    -0.069 Cl
HETATM   10 CL   LIG     1      18.836  38.517  23.777  1.00  0.00    -0.080 Cl
ENDBRANCH   2   6
TORSDOF 1
ENDMDL
MODEL 17
REMARK VINA RESULT:      -3.8      2.556      4.216
REMARK  1 active torsions:
REMARK  status: ('A' for Active; 'I' for Inactive)
REMARK    1  A    between atoms: C_2  and  C_3 
ROOT
HETATM    1 CL   LIG     1      17.257  34.751  23.065  1.00  0.00    -0.080 Cl
HETATM    2  C   LIG     1      17.160  36.220  24.031  1.00  0.00     0.091 C 
HETATM    3  C   LIG     1      17.480  36.214  25.335  1.00  0.00     0.126 C 
HETATM    4 CL   LIG     1      17.465  37.687  26.299  1.00  0.00    -0.069 Cl
HETATM    5 CL   LIG     1      17.962  34.734  26.152  1.00  0.00    -0.069 Cl
ENDROOT
BRANCH   2   6
HETATM    6  C   LIG     1      16.762  37.457  23.335  1.00  0.00     0.091 C 
HETATM    7  C   LIG     1      17.617  38.479  23.166  1.00  0.00     0.126 C 
HETATM    8 CL   LIG     1      17.128  39.953  22.341  1.00  0.00    -0.069 Cl
HETATM    9 CL   LIG     1      19.266  38.419  23.780  1.00  0.00    -0.069 Cl
HETATM   10 CL   LIG     1      15.094  37.568  22.784  1.00  0.00    -0.080 Cl
ENDBRANCH   2   6
TORSDOF 1
ENDMDL
MODEL 18
REMARK VINA RESULT:      -3.7      2.086      4.494
REMARK  1 active torsions:
REMARK  status: ('A' for Active; 'I' for Inactive)
REMARK    1  A    between atoms: C_2  and  C_3 
ROOT
HETATM    1 CL   LIG     1      15.267  37.788  22.867  1.00  0.00    -0.080 Cl
HETATM    2  C   LIG     1      17.027  37.807  22.829  1.00  0.00     0.091 C 
HETATM    3  C   LIG     1      17.738  38.270  23.870  1.00  0.00     0.126 C 
HETATM    4 CL   LIG     1      19.498  38.225  23.884  1.00  0.00    -0.069 Cl
HETATM    5 CL   LIG     1      16.947  38.926  25.297  1.00  0.00    -0.069 Cl
ENDROOT
BRANCH   2   6
HETATM    6  C   LIG     1      17.679  37.247  21.632  1.00  0.00     0.091 C 
HETATM    7  C   LIG     1      18.381  38.018  20.783  1.00  0.00     0.126 C 
HETATM    8 CL   LIG     1      19.147  37.339  19.353  1.00  0.00    -0.069 Cl
HETATM    9 CL   LIG     1      18.554  39.752  21.034  1.00  0.00    -0.069 Cl
HETATM   10 CL   LIG     1      17.451  35.530  21.321  1.00  0.00    -0.080 Cl
ENDBRANCH   2   6
TORSDOF 1
ENDMDL
MODEL 19
REMARK VINA RESULT:      -3.5     15.307     16.393
REMARK  1 active torsions:
REMARK  status: ('A' for Active; 'I' for Inactive)
REMARK    1  A    between atoms: C_2  and  C_3 
ROOT
HETATM    1 CL   LIG     1      23.452  22.021  18.162  1.00  0.00    -0.080 Cl
HETATM    2  C   LIG     1      24.422  22.237  19.615  1.00  0.00     0.091 C 
HETATM    3  C   LIG     1      25.380  23.176  19.676  1.00  0.00     0.126 C 
HETATM    4 CL   LIG     1      26.307  23.461  21.145  1.00  0.00    -0.069 Cl
HETATM    5 CL   LIG     1      25.745  24.201  18.294  1.00  0.00    -0.069 Cl
ENDROOT
BRANCH   2   6
HETATM    6  C   LIG     1      24.103  21.379  20.770  1.00  0.00     0.091 C 
HETATM    7  C   LIG     1      23.052  21.631  21.569  1.00  0.00     0.126 C 
HETATM    8 CL   LIG     1      22.687  20.604  22.949  1.00  0.00    -0.069 Cl
HETATM    9 CL   LIG     1      21.995  23.013  21.301  1.00  0.00    -0.069 Cl
HETATM   10 CL   LIG     1      25.194  20.038  21.101  1.00  0.00    -0.080 Cl
ENDBRANCH   2   6
TORSDOF 1
ENDMDL
MODEL 20
REMARK VINA RESULT:      -3.5     15.288     16.471
REMARK  1 active torsions:
REMARK  status: ('A' for Active; 'I' for Inactive)
REMARK    1  A    between atoms: C_2  and  C_3 
ROOT
HETATM    1 CL   LIG     1      25.334  20.168  21.175  1.00  0.00    -0.080 Cl
HETATM    2  C   LIG     1      24.183  21.448  20.804  1.00  0.00     0.091 C 
HETATM    3  C   LIG     1      23.123  21.677  21.595  1.00  0.00     0.126 C 
HETATM    4 CL   LIG     1      22.005  23.002  21.285  1.00  0.00    -0.069 Cl
HETATM    5 CL   LIG     1      22.804  20.682  23.009  1.00  0.00    -0.069 Cl
ENDROOT
BRANCH   2   6
HETATM    6  C   LIG     1      24.464  22.281  19.621  1.00  0.00     0.091 C 
HETATM    7  C   LIG     1      25.411  23.233  19.636  1.00  0.00     0.126 C 
HETATM    8 CL   LIG     1      25.731  24.227  18.220  1.00  0.00    -0.069 Cl
HETATM    9 CL   LIG     1      26.372  23.563  21.074  1.00  0.00    -0.069 Cl
HETATM   10 CL   LIG     1      23.460  22.021  18.198  1.00  0.00    -0.080 Cl
ENDBRANCH   2   6
TORSDOF 1
ENDMDL
