REMARK  1 active torsions:
REMARK  status: ('A' for Active; 'I' for Inactive)
REMARK    1  A    between atoms: C_2  and  C_3 
ROOT
HETATM    1 CL   LIG     1      -1.595  -1.597   1.155  1.00  0.00    -0.080 Cl
HETATM    2  C   LIG     1      -0.755  -0.221   0.447  1.00  0.00     0.091 C 
HETATM    3  C   LIG     1      -1.435   0.813  -0.074  1.00  0.00     0.126 C 
HETATM    4 CL   LIG     1      -0.615   2.233  -0.715  1.00  0.00    -0.069 Cl
HETATM    5 CL   LIG     1      -3.193   0.821  -0.120  1.00  0.00    -0.069 Cl
ENDROOT
BRANCH   2   6
HETATM    6  C   LIG     1       0.718  -0.234   0.498  1.00  0.00     0.091 C 
HETATM    7  C   LIG     1       1.461  -0.493  -0.591  1.00  0.00     0.126 C 
HETATM    8 CL   LIG     1       3.218  -0.514  -0.515  1.00  0.00    -0.069 Cl
HETATM    9 CL   LIG     1       0.726  -0.852  -2.150  1.00  0.00    -0.069 Cl
HETATM   10 CL   LIG     1       1.470   0.044   2.065  1.00  0.00    -0.080 Cl
ENDBRANCH   2   6
TORSDOF 1
