REMARK  0 active torsions:
REMARK  status: ('A' for Active; 'I' for Inactive)
ROOT
HETATM    1 CL   LIG     1       2.701   1.447   0.073  1.00  0.00    -0.081 Cl
HETATM    2  C   LIG     1       1.147   0.614   0.031  1.00  0.00     0.077 A 
HETATM    3  C   LIG     1       1.097  -0.790  -0.059  1.00  0.00     0.057 A 
HETATM    4 CL   LIG     1       2.567  -1.754  -0.131  1.00  0.00    -0.082 Cl
HETATM    5  C   LIG     1      -0.139  -1.444  -0.092  1.00  0.00     0.026 A 
HETATM    6  C   LIG     1      -1.325  -0.710  -0.036  1.00  0.00     0.003 A 
HETATM    7  C   LIG     1      -1.282   0.683   0.053  1.00  0.00     0.026 A 
HETATM    8  C   LIG     1      -0.052   1.349   0.087  1.00  0.00     0.057 A 
HETATM    9 CL   LIG     1      -0.044   3.105   0.200  1.00  0.00    -0.082 Cl
ENDROOT
TORSDOF 0
