MODEL 1
REMARK VINA RESULT:      -6.0      0.000      0.000
REMARK  0 active torsions:
REMARK  status: ('A' for Active; 'I' for Inactive)
ROOT
HETATM    1 CL   LIG     1      17.307  38.109  25.639  1.00  0.00    -0.081 Cl
HETATM    2  C   LIG     1      17.163  37.082  24.213  1.00  0.00     0.077 A 
HETATM    3  C   LIG     1      17.027  37.657  22.935  1.00  0.00     0.057 A 
HETATM    4 CL   LIG     1      16.997  39.402  22.717  1.00  0.00    -0.082 Cl
HETATM    5  C   LIG     1      16.914  36.836  21.809  1.00  0.00     0.026 A 
HETATM    6  C   LIG     1      16.935  35.447  21.945  1.00  0.00     0.003 A 
HETATM    7  C   LIG     1      17.070  34.870  23.210  1.00  0.00     0.026 A 
HETATM    8  C   LIG     1      17.184  35.681  24.345  1.00  0.00     0.057 A 
HETATM    9 CL   LIG     1      17.352  34.913  25.919  1.00  0.00    -0.082 Cl
ENDROOT
TORSDOF 0
ENDMDL
MODEL 2
REMARK VINA RESULT:      -6.0      0.026      3.066
REMARK  0 active torsions:
REMARK  status: ('A' for Active; 'I' for Inactive)
ROOT
HETATM    1 CL   LIG     1      17.292  38.115  25.618  1.00  0.00    -0.081 Cl
HETATM    2  C   LIG     1      17.157  37.088  24.191  1.00  0.00     0.077 A 
HETATM    3  C   LIG     1      17.182  35.686  24.320  1.00  0.00     0.057 A 
HETATM    4 CL   LIG     1      17.345  34.917  25.894  1.00  0.00    -0.082 Cl
HETATM    5  C   LIG     1      17.074  34.878  23.183  1.00  0.00     0.026 A 
HETATM    6  C   LIG     1      16.942  35.456  21.920  1.00  0.00     0.003 A 
HETATM    7  C   LIG     1      16.917  36.846  21.785  1.00  0.00     0.026 A 
HETATM    8  C   LIG     1      17.024  37.665  22.914  1.00  0.00     0.057 A 
HETATM    9 CL   LIG     1      16.988  39.411  22.698  1.00  0.00    -0.082 Cl
ENDROOT
TORSDOF 0
ENDMDL
MODEL 3
REMARK VINA RESULT:      -5.5      1.713      2.877
REMARK  0 active torsions:
REMARK  status: ('A' for Active; 'I' for Inactive)
ROOT
HETATM    1 CL   LIG     1      17.198  34.735  24.788  1.00  0.00    -0.081 Cl
HETATM    2  C   LIG     1      17.193  36.242  23.872  1.00  0.00     0.077 A 
HETATM    3  C   LIG     1      16.944  36.229  22.487  1.00  0.00     0.057 A 
HETATM    4 CL   LIG     1      16.631  34.725  21.629  1.00  0.00    -0.082 Cl
HETATM    5  C   LIG     1      16.942  37.428  21.766  1.00  0.00     0.026 A 
HETATM    6  C   LIG     1      17.186  38.639  22.416  1.00  0.00     0.003 A 
HETATM    7  C   LIG     1      17.434  38.659  23.790  1.00  0.00     0.026 A 
HETATM    8  C   LIG     1      17.439  37.466  24.522  1.00  0.00     0.057 A 
HETATM    9 CL   LIG     1      17.755  37.537  26.251  1.00  0.00    -0.082 Cl
ENDROOT
TORSDOF 0
ENDMDL
MODEL 4
REMARK VINA RESULT:      -5.5      1.710      2.994
REMARK  0 active torsions:
REMARK  status: ('A' for Active; 'I' for Inactive)
ROOT
HETATM    1 CL   LIG     1      17.153  34.752  24.780  1.00  0.00    -0.081 Cl
HETATM    2  C   LIG     1      17.176  36.245  23.841  1.00  0.00     0.077 A 
HETATM    3  C   LIG     1      17.417  37.478  24.476  1.00  0.00     0.057 A 
HETATM    4 CL   LIG     1      17.701  37.574  26.209  1.00  0.00    -0.082 Cl
HETATM    5  C   LIG     1      17.433  38.658  23.725  1.00  0.00     0.026 A 
HETATM    6  C   LIG     1      17.212  38.619  22.347  1.00  0.00     0.003 A 
HETATM    7  C   LIG     1      16.973  37.398  21.712  1.00  0.00     0.026 A 
HETATM    8  C   LIG     1      16.954  36.211  22.452  1.00  0.00     0.057 A 
HETATM    9 CL   LIG     1      16.649  34.695  21.611  1.00  0.00    -0.082 Cl
ENDROOT
TORSDOF 0
ENDMDL
MODEL 5
REMARK VINA RESULT:      -5.5      1.487      2.716
REMARK  0 active torsions:
REMARK  status: ('A' for Active; 'I' for Inactive)
ROOT
HETATM    1 CL   LIG     1      16.473  38.856  22.609  1.00  0.00    -0.081 Cl
HETATM    2  C   LIG     1      16.833  37.325  23.407  1.00  0.00     0.077 A 
HETATM    3  C   LIG     1      16.777  36.118  22.684  1.00  0.00     0.057 A 
HETATM    4 CL   LIG     1      16.350  36.094  20.977  1.00  0.00    -0.082 Cl
HETATM    5  C   LIG     1      17.063  34.907  23.323  1.00  0.00     0.026 A 
HETATM    6  C   LIG     1      17.406  34.890  24.676  1.00  0.00     0.003 A 
HETATM    7  C   LIG     1      17.463  36.083  25.398  1.00  0.00     0.026 A 
HETATM    8  C   LIG     1      17.179  37.301  24.771  1.00  0.00     0.057 A 
HETATM    9 CL   LIG     1      17.263  38.781  25.719  1.00  0.00    -0.082 Cl
ENDROOT
TORSDOF 0
ENDMDL
MODEL 6
REMARK VINA RESULT:      -5.5      2.951      3.680
REMARK  0 active torsions:
REMARK  status: ('A' for Active; 'I' for Inactive)
ROOT
HETATM    1 CL   LIG     1      18.561  36.589  19.359  1.00  0.00    -0.081 Cl
HETATM    2  C   LIG     1      17.888  37.229  20.858  1.00  0.00     0.077 A 
HETATM    3  C   LIG     1      18.195  38.539  21.271  1.00  0.00     0.057 A 
HETATM    4 CL   LIG     1      19.248  39.575  20.315  1.00  0.00    -0.082 Cl
HETATM    5  C   LIG     1      17.658  39.040  22.461  1.00  0.00     0.026 A 
HETATM    6  C   LIG     1      16.818  38.246  23.244  1.00  0.00     0.003 A 
HETATM    7  C   LIG     1      16.511  36.945  22.840  1.00  0.00     0.026 A 
HETATM    8  C   LIG     1      17.041  36.432  21.651  1.00  0.00     0.057 A 
HETATM    9 CL   LIG     1      16.627  34.788  21.180  1.00  0.00    -0.082 Cl
ENDROOT
TORSDOF 0
ENDMDL
MODEL 7
REMARK VINA RESULT:      -5.3      1.910      2.948
REMARK  0 active torsions:
REMARK  status: ('A' for Active; 'I' for Inactive)
ROOT
HETATM    1 CL   LIG     1      18.563  39.380  21.541  1.00  0.00    -0.081 Cl
HETATM    2  C   LIG     1      17.866  37.775  21.763  1.00  0.00     0.077 A 
HETATM    3  C   LIG     1      17.882  36.843  20.708  1.00  0.00     0.057 A 
HETATM    4 CL   LIG     1      18.589  37.242  19.147  1.00  0.00    -0.082 Cl
HETATM    5  C   LIG     1      17.327  35.572  20.891  1.00  0.00     0.026 A 
HETATM    6  C   LIG     1      16.758  35.222  22.117  1.00  0.00     0.003 A 
HETATM    7  C   LIG     1      16.740  36.142  23.167  1.00  0.00     0.026 A 
HETATM    8  C   LIG     1      17.291  37.417  22.997  1.00  0.00     0.057 A 
HETATM    9 CL   LIG     1      17.247  38.544  24.347  1.00  0.00    -0.082 Cl
ENDROOT
TORSDOF 0
ENDMDL
MODEL 8
REMARK VINA RESULT:      -5.3      1.753      4.065
REMARK  0 active torsions:
REMARK  status: ('A' for Active; 'I' for Inactive)
ROOT
HETATM    1 CL   LIG     1      17.100  34.835  22.777  1.00  0.00    -0.081 Cl
HETATM    2  C   LIG     1      17.273  36.285  23.766  1.00  0.00     0.077 A 
HETATM    3  C   LIG     1      17.344  36.182  25.169  1.00  0.00     0.057 A 
HETATM    4 CL   LIG     1      17.264  34.621  25.976  1.00  0.00    -0.082 Cl
HETATM    5  C   LIG     1      17.481  37.337  25.947  1.00  0.00     0.026 A 
HETATM    6  C   LIG     1      17.548  38.591  25.339  1.00  0.00     0.003 A 
HETATM    7  C   LIG     1      17.478  38.699  23.948  1.00  0.00     0.026 A 
HETATM    8  C   LIG     1      17.341  37.552  23.159  1.00  0.00     0.057 A 
HETATM    9 CL   LIG     1      17.257  37.734  21.410  1.00  0.00    -0.082 Cl
ENDROOT
TORSDOF 0
ENDMDL
MODEL 9
REMARK VINA RESULT:      -5.2      1.816      3.467
REMARK  0 active torsions:
REMARK  status: ('A' for Active; 'I' for Inactive)
ROOT
HETATM    1 CL   LIG     1      18.476  39.401  22.120  1.00  0.00    -0.081 Cl
HETATM    2  C   LIG     1      17.793  37.791  21.889  1.00  0.00     0.077 A 
HETATM    3  C   LIG     1      17.071  37.172  22.927  1.00  0.00     0.057 A 
HETATM    4 CL   LIG     1      16.826  37.972  24.474  1.00  0.00    -0.082 Cl
HETATM    5  C   LIG     1      16.531  35.895  22.736  1.00  0.00     0.026 A 
HETATM    6  C   LIG     1      16.706  35.232  21.521  1.00  0.00     0.003 A 
HETATM    7  C   LIG     1      17.421  35.841  20.488  1.00  0.00     0.026 A 
HETATM    8  C   LIG     1      17.965  37.118  20.665  1.00  0.00     0.057 A 
HETATM    9 CL   LIG     1      18.859  37.848  19.337  1.00  0.00    -0.082 Cl
ENDROOT
TORSDOF 0
ENDMDL
MODEL 10
REMARK VINA RESULT:      -5.2      8.973     10.180
REMARK  0 active torsions:
REMARK  status: ('A' for Active; 'I' for Inactive)
ROOT
HETATM    1 CL   LIG     1      16.778  32.632  14.822  1.00  0.00    -0.081 Cl
HETATM    2  C   LIG     1      15.263  31.955  15.419  1.00  0.00     0.077 A 
HETATM    3  C   LIG     1      14.714  30.806  14.819  1.00  0.00     0.057 A 
HETATM    4 CL   LIG     1      15.512  30.011  13.467  1.00  0.00    -0.082 Cl
HETATM    5  C   LIG     1      13.512  30.274  15.298  1.00  0.00     0.026 A 
HETATM    6  C   LIG     1      12.853  30.879  16.369  1.00  0.00     0.003 A 
HETATM    7  C   LIG     1      13.392  32.019  16.969  1.00  0.00     0.026 A 
HETATM    8  C   LIG     1      14.594  32.560  16.499  1.00  0.00     0.057 A 
HETATM    9 CL   LIG     1      15.238  33.997  17.284  1.00  0.00    -0.082 Cl
ENDROOT
TORSDOF 0
ENDMDL
MODEL 11
REMARK VINA RESULT:      -5.2      8.957     10.078
REMARK  0 active torsions:
REMARK  status: ('A' for Active; 'I' for Inactive)
ROOT
HETATM    1 CL   LIG     1      16.768  32.662  14.879  1.00  0.00    -0.081 Cl
HETATM    2  C   LIG     1      15.250  31.968  15.449  1.00  0.00     0.077 A 
HETATM    3  C   LIG     1      14.564  32.554  16.530  1.00  0.00     0.057 A 
HETATM    4 CL   LIG     1      15.189  33.985  17.341  1.00  0.00    -0.082 Cl
HETATM    5  C   LIG     1      13.361  31.999  16.977  1.00  0.00     0.026 A 
HETATM    6  C   LIG     1      12.836  30.864  16.356  1.00  0.00     0.003 A 
HETATM    7  C   LIG     1      13.512  30.278  15.283  1.00  0.00     0.026 A 
HETATM    8  C   LIG     1      14.717  30.825  14.827  1.00  0.00     0.057 A 
HETATM    9 CL   LIG     1      15.535  30.054  13.473  1.00  0.00    -0.082 Cl
ENDROOT
TORSDOF 0
ENDMDL
MODEL 12
REMARK VINA RESULT:      -5.1      9.353     10.639
REMARK  0 active torsions:
REMARK  status: ('A' for Active; 'I' for Inactive)
ROOT
HETATM    1 CL   LIG     1      15.675  30.871  13.235  1.00  0.00    -0.081 Cl
HETATM    2  C   LIG     1      15.028  31.254  14.831  1.00  0.00     0.077 A 
HETATM    3  C   LIG     1      13.908  30.560  15.328  1.00  0.00     0.057 A 
HETATM    4 CL   LIG     1      13.123  29.299  14.386  1.00  0.00    -0.082 Cl
HETATM    5  C   LIG     1      13.400  30.870  16.594  1.00  0.00     0.026 A 
HETATM    6  C   LIG     1      14.000  31.864  17.368  1.00  0.00     0.003 A 
HETATM    7  C   LIG     1      15.111  32.556  16.881  1.00  0.00     0.026 A 
HETATM    8  C   LIG     1      15.628  32.256  15.616  1.00  0.00     0.057 A 
HETATM    9 CL   LIG     1      17.029  33.152  15.041  1.00  0.00    -0.082 Cl
ENDROOT
TORSDOF 0
ENDMDL
MODEL 13
REMARK VINA RESULT:      -5.1      9.328     10.413
REMARK  0 active torsions:
REMARK  status: ('A' for Active; 'I' for Inactive)
ROOT
HETATM    1 CL   LIG     1      15.677  30.930  13.228  1.00  0.00    -0.081 Cl
HETATM    2  C   LIG     1      15.043  31.289  14.834  1.00  0.00     0.077 A 
HETATM    3  C   LIG     1      15.639  32.288  15.625  1.00  0.00     0.057 A 
HETATM    4 CL   LIG     1      17.024  33.207  15.046  1.00  0.00    -0.082 Cl
HETATM    5  C   LIG     1      15.131  32.568  16.898  1.00  0.00     0.026 A 
HETATM    6  C   LIG     1      14.033  31.858  17.388  1.00  0.00     0.003 A 
HETATM    7  C   LIG     1      13.437  30.865  16.609  1.00  0.00     0.026 A 
HETATM    8  C   LIG     1      13.936  30.577  15.334  1.00  0.00     0.057 A 
HETATM    9 CL   LIG     1      13.154  29.318  14.385  1.00  0.00    -0.082 Cl
ENDROOT
TORSDOF 0
ENDMDL
MODEL 14
REMARK VINA RESULT:      -5.1      2.843      4.313
REMARK  0 active torsions:
REMARK  status: ('A' for Active; 'I' for Inactive)
ROOT
HETATM    1 CL   LIG     1      16.897  35.469  21.417  1.00  0.00    -0.081 Cl
HETATM    2  C   LIG     1      17.572  37.097  21.485  1.00  0.00     0.077 A 
HETATM    3  C   LIG     1      17.351  37.910  22.613  1.00  0.00     0.057 A 
HETATM    4 CL   LIG     1      16.404  37.337  23.981  1.00  0.00    -0.082 Cl
HETATM    5  C   LIG     1      17.890  39.200  22.660  1.00  0.00     0.026 A 
HETATM    6  C   LIG     1      18.646  39.686  21.592  1.00  0.00     0.003 A 
HETATM    7  C   LIG     1      18.869  38.884  20.470  1.00  0.00     0.026 A 
HETATM    8  C   LIG     1      18.336  37.592  20.411  1.00  0.00     0.057 A 
HETATM    9 CL   LIG     1      18.641  36.616  18.979  1.00  0.00    -0.082 Cl
ENDROOT
TORSDOF 0
ENDMDL
MODEL 15
REMARK VINA RESULT:      -5.1      2.855      3.879
REMARK  0 active torsions:
REMARK  status: ('A' for Active; 'I' for Inactive)
ROOT
HETATM    1 CL   LIG     1      16.885  35.471  21.387  1.00  0.00    -0.081 Cl
HETATM    2  C   LIG     1      17.564  37.097  21.471  1.00  0.00     0.077 A 
HETATM    3  C   LIG     1      18.376  37.581  20.428  1.00  0.00     0.057 A 
HETATM    4 CL   LIG     1      18.737  36.593  19.017  1.00  0.00    -0.082 Cl
HETATM    5  C   LIG     1      18.911  38.871  20.501  1.00  0.00     0.026 A 
HETATM    6  C   LIG     1      18.644  39.682  21.605  1.00  0.00     0.003 A 
HETATM    7  C   LIG     1      17.840  39.207  22.643  1.00  0.00     0.026 A 
HETATM    8  C   LIG     1      17.298  37.919  22.582  1.00  0.00     0.057 A 
HETATM    9 CL   LIG     1      16.290  37.361  23.912  1.00  0.00    -0.082 Cl
ENDROOT
TORSDOF 0
ENDMDL
MODEL 16
REMARK VINA RESULT:      -4.8      9.019     10.310
REMARK  0 active torsions:
REMARK  status: ('A' for Active; 'I' for Inactive)
ROOT
HETATM    1 CL   LIG     1      15.188  33.172  17.233  1.00  0.00    -0.081 Cl
HETATM    2  C   LIG     1      15.226  32.166  15.785  1.00  0.00     0.077 A 
HETATM    3  C   LIG     1      14.320  31.099  15.637  1.00  0.00     0.057 A 
HETATM    4 CL   LIG     1      13.127  30.735  16.879  1.00  0.00    -0.082 Cl
HETATM    5  C   LIG     1      14.356  30.305  14.486  1.00  0.00     0.026 A 
HETATM    6  C   LIG     1      15.289  30.566  13.481  1.00  0.00     0.003 A 
HETATM    7  C   LIG     1      16.191  31.623  13.621  1.00  0.00     0.026 A 
HETATM    8  C   LIG     1      16.165  32.424  14.768  1.00  0.00     0.057 A 
HETATM    9 CL   LIG     1      17.320  33.745  14.903  1.00  0.00    -0.082 Cl
ENDROOT
TORSDOF 0
ENDMDL
MODEL 17
REMARK VINA RESULT:      -4.8      9.128     10.141
REMARK  0 active torsions:
REMARK  status: ('A' for Active; 'I' for Inactive)
ROOT
HETATM    1 CL   LIG     1      15.066  33.060  17.181  1.00  0.00    -0.081 Cl
HETATM    2  C   LIG     1      15.153  32.060  15.730  1.00  0.00     0.077 A 
HETATM    3  C   LIG     1      16.111  32.334  14.736  1.00  0.00     0.057 A 
HETATM    4 CL   LIG     1      17.246  33.668  14.904  1.00  0.00    -0.082 Cl
HETATM    5  C   LIG     1      16.174  31.537  13.588  1.00  0.00     0.026 A 
HETATM    6  C   LIG     1      15.289  30.470  13.423  1.00  0.00     0.003 A 
HETATM    7  C   LIG     1      14.336  30.194  14.406  1.00  0.00     0.026 A 
HETATM    8  C   LIG     1      14.263  30.983  15.558  1.00  0.00     0.057 A 
HETATM    9 CL   LIG     1      13.047  30.599  16.771  1.00  0.00    -0.082 Cl
ENDROOT
TORSDOF 0
ENDMDL
MODEL 18
REMARK VINA RESULT:      -4.6      2.387      2.963
REMARK  0 active torsions:
REMARK  status: ('A' for Active; 'I' for Inactive)
ROOT
HETATM    1 CL   LIG     1      16.259  37.839  23.341  1.00  0.00    -0.081 Cl
HETATM    2  C   LIG     1      17.192  37.490  21.885  1.00  0.00     0.077 A 
HETATM    3  C   LIG     1      18.123  38.428  21.398  1.00  0.00     0.057 A 
HETATM    4 CL   LIG     1      18.387  39.963  22.216  1.00  0.00    -0.082 Cl
HETATM    5  C   LIG     1      18.859  38.145  20.243  1.00  0.00     0.026 A 
HETATM    6  C   LIG     1      18.676  36.936  19.570  1.00  0.00     0.003 A 
HETATM    7  C   LIG     1      17.753  36.002  20.048  1.00  0.00     0.026 A 
HETATM    8  C   LIG     1      17.011  36.273  21.202  1.00  0.00     0.057 A 
HETATM    9 CL   LIG     1      15.860  35.069  21.770  1.00  0.00    -0.082 Cl
ENDROOT
TORSDOF 0
ENDMDL
MODEL 19
REMARK VINA RESULT:      -4.5      1.838      2.795
REMARK  0 active torsions:
REMARK  status: ('A' for Active; 'I' for Inactive)
ROOT
HETATM    1 CL   LIG     1      17.408  35.642  21.675  1.00  0.00    -0.081 Cl
HETATM    2  C   LIG     1      17.414  36.807  22.999  1.00  0.00     0.077 A 
HETATM    3  C   LIG     1      17.562  38.182  22.734  1.00  0.00     0.057 A 
HETATM    4 CL   LIG     1      17.742  38.781  21.090  1.00  0.00    -0.082 Cl
HETATM    5  C   LIG     1      17.566  39.100  23.789  1.00  0.00     0.026 A 
HETATM    6  C   LIG     1      17.424  38.659  25.106  1.00  0.00     0.003 A 
HETATM    7  C   LIG     1      17.278  37.297  25.376  1.00  0.00     0.026 A 
HETATM    8  C   LIG     1      17.272  36.368  24.329  1.00  0.00     0.057 A 
HETATM    9 CL   LIG     1      17.085  34.661  24.714  1.00  0.00    -0.082 Cl
ENDROOT
TORSDOF 0
ENDMDL
MODEL 20
REMARK VINA RESULT:      -4.5      9.207     10.367
REMARK  0 active torsions:
REMARK  status: ('A' for Active; 'I' for Inactive)
ROOT
HETATM    1 CL   LIG     1      13.180  31.280  16.961  1.00  0.00    -0.081 Cl
HETATM    2  C   LIG     1      14.449  31.568  15.770  1.00  0.00     0.077 A 
HETATM    3  C   LIG     1      14.574  30.726  14.649  1.00  0.00     0.057 A 
HETATM    4 CL   LIG     1      13.481  29.370  14.398  1.00  0.00    -0.082 Cl
HETATM    5  C   LIG     1      15.583  30.961  13.709  1.00  0.00     0.026 A 
HETATM    6  C   LIG     1      16.467  32.028  13.877  1.00  0.00     0.003 A 
HETATM    7  C   LIG     1      16.348  32.867  14.987  1.00  0.00     0.026 A 
HETATM    8  C   LIG     1      15.343  32.643  15.935  1.00  0.00     0.057 A 
HETATM    9 CL   LIG     1      15.229  33.725  17.318  1.00  0.00    -0.082 Cl
ENDROOT
TORSDOF 0
ENDMDL
