REMARK  4 active torsions:
REMARK  status: ('A' for Active; 'I' for Inactive)
REMARK    1  A    between atoms: O_1  and  C_2 
REMARK    2  A    between atoms: C_5  and  O_6 
REMARK    3  A    between atoms: C_7  and  O_8 
REMARK    4  A    between atoms: C_9  and  O_10 
ROOT
HETATM    1  C   LIG     1       1.251  -0.535  -0.307  1.00  0.00     0.173 C 
HETATM    2  C   LIG     1       1.177   0.928  -0.775  1.00  0.00     0.205 C 
HETATM    3  O   LIG     1      -0.125   1.249  -1.228  1.00  0.00    -0.356 OA
HETATM    4  C   LIG     1      -1.044   1.205  -0.150  1.00  0.00     0.288 C 
HETATM    5  C   LIG     1      -1.169  -0.235   0.404  1.00  0.00     0.204 C 
HETATM    6  C   LIG     1       0.220  -0.778   0.806  1.00  0.00     0.182 C 
ENDROOT
BRANCH   1   7
HETATM    7  O   LIG     1       2.537  -0.817   0.183  1.00  0.00    -0.391 OA
HETATM    8  H   LIG     1       3.132  -0.900  -0.607  1.00  0.00     0.210 HD
ENDBRANCH   1   7
BRANCH   6   9
HETATM    9  O   LIG     1       0.147  -2.151   1.089  1.00  0.00    -0.390 OA
HETATM   10  H   LIG     1      -0.325  -2.240   1.957  1.00  0.00     0.210 HD
ENDBRANCH   6   9
BRANCH   5  11
HETATM   11  O   LIG     1      -1.810  -1.088  -0.515  1.00  0.00    -0.388 OA
HETATM   12  H   LIG     1      -1.311  -1.051  -1.372  1.00  0.00     0.210 HD
ENDBRANCH   5  11
BRANCH   4  13
HETATM   13  O   LIG     1      -2.293   1.645  -0.614  1.00  0.00    -0.369 OA
HETATM   14  H   LIG     1      -2.852   1.823   0.188  1.00  0.00     0.212 HD
ENDBRANCH   4  13
TORSDOF 4
