MODEL 1
REMARK VINA RESULT:      -5.1      0.000      0.000
REMARK  4 active torsions:
REMARK  status: ('A' for Active; 'I' for Inactive)
REMARK    1  A    between atoms: O_1  and  C_2 
REMARK    2  A    between atoms: C_5  and  O_6 
REMARK    3  A    between atoms: C_7  and  O_8 
REMARK    4  A    between atoms: C_9  and  O_10 
ROOT
HETATM    1  C   LIG     1      17.381  36.409  25.606  1.00  0.00     0.173 C 
HETATM    2  C   LIG     1      17.537  35.215  24.650  1.00  0.00     0.205 C 
HETATM    3  O   LIG     1      16.630  35.311  23.568  1.00  0.00    -0.356 OA
HETATM    4  C   LIG     1      16.955  36.425  22.754  1.00  0.00     0.288 C 
HETATM    5  C   LIG     1      16.769  37.747  23.536  1.00  0.00     0.204 C 
HETATM    6  C   LIG     1      17.599  37.722  24.838  1.00  0.00     0.182 C 
ENDROOT
BRANCH   1   7
HETATM    7  O   LIG     1      18.323  36.319  26.645  1.00  0.00    -0.391 OA
HETATM    8  H   LIG     1      17.871  35.861  27.401  1.00  0.00     0.210 HD
ENDBRANCH   1   7
BRANCH   6   9
HETATM    9  O   LIG     1      17.258  38.810  25.658  1.00  0.00    -0.390 OA
HETATM   10  H   LIG     1      17.173  38.457  26.581  1.00  0.00     0.210 HD
ENDBRANCH   6   9
BRANCH   5  11
HETATM   11  O   LIG     1      15.409  38.007  23.795  1.00  0.00    -0.388 OA
HETATM   12  H   LIG     1      15.356  38.706  24.498  1.00  0.00     0.210 HD
ENDBRANCH   5  11
BRANCH   4  13
HETATM   13  O   LIG     1      16.112  36.414  21.632  1.00  0.00    -0.369 OA
HETATM   14  H   LIG     1      16.607  35.955  20.903  1.00  0.00     0.212 HD
ENDBRANCH   4  13
TORSDOF 4
ENDMDL
MODEL 2
REMARK VINA RESULT:      -5.0      8.198      9.713
REMARK  4 active torsions:
REMARK  status: ('A' for Active; 'I' for Inactive)
REMARK    1  A    between atoms: O_1  and  C_2 
REMARK    2  A    between atoms: C_5  and  O_6 
REMARK    3  A    between atoms: C_7  and  O_8 
REMARK    4  A    between atoms: C_9  and  O_10 
ROOT
HETATM    1  C   LIG     1      15.826  32.551  16.073  1.00  0.00     0.173 C 
HETATM    2  C   LIG     1      15.289  31.574  15.015  1.00  0.00     0.205 C 
HETATM    3  O   LIG     1      14.455  30.596  15.607  1.00  0.00    -0.356 OA
HETATM    4  C   LIG     1      13.279  31.199  16.120  1.00  0.00     0.288 C 
HETATM    5  C   LIG     1      13.622  32.169  17.276  1.00  0.00     0.204 C 
HETATM    6  C   LIG     1      14.654  33.219  16.808  1.00  0.00     0.182 C 
ENDROOT
BRANCH   1   7
HETATM    7  O   LIG     1      16.611  33.540  15.457  1.00  0.00    -0.391 OA
HETATM    8  H   LIG     1      16.163  34.409  15.630  1.00  0.00     0.210 HD
ENDBRANCH   1   7
BRANCH   6   9
HETATM    9  O   LIG     1      15.140  33.952  17.902  1.00  0.00    -0.390 OA
HETATM   10  H   LIG     1      14.393  34.524  18.218  1.00  0.00     0.210 HD
ENDBRANCH   6   9
BRANCH   5  11
HETATM   11  O   LIG     1      14.073  31.476  18.416  1.00  0.00    -0.388 OA
HETATM   12  H   LIG     1      13.813  31.997  19.219  1.00  0.00     0.210 HD
ENDBRANCH   5  11
BRANCH   4  13
HETATM   13  O   LIG     1      12.429  30.186  16.587  1.00  0.00    -0.369 OA
HETATM   14  H   LIG     1      12.210  29.610  15.807  1.00  0.00     0.212 HD
ENDBRANCH   4  13
TORSDOF 4
ENDMDL
MODEL 3
REMARK VINA RESULT:      -5.0      3.186      4.739
REMARK  4 active torsions:
REMARK  status: ('A' for Active; 'I' for Inactive)
REMARK    1  A    between atoms: O_1  and  C_2 
REMARK    2  A    between atoms: C_5  and  O_6 
REMARK    3  A    between atoms: C_7  and  O_8 
REMARK    4  A    between atoms: C_9  and  O_10 
ROOT
HETATM    1  C   LIG     1      18.667  37.263  20.212  1.00  0.00     0.173 C 
HETATM    2  C   LIG     1      17.440  36.701  20.949  1.00  0.00     0.205 C 
HETATM    3  O   LIG     1      17.369  37.205  22.270  1.00  0.00    -0.356 OA
HETATM    4  C   LIG     1      17.126  38.602  22.250  1.00  0.00     0.288 C 
HETATM    5  C   LIG     1      18.318  39.355  21.610  1.00  0.00     0.204 C 
HETATM    6  C   LIG     1      18.609  38.798  20.199  1.00  0.00     0.182 C 
ENDROOT
BRANCH   1   7
HETATM    7  O   LIG     1      18.691  36.788  18.890  1.00  0.00    -0.391 OA
HETATM    8  H   LIG     1      18.255  37.482  18.330  1.00  0.00     0.210 HD
ENDBRANCH   1   7
BRANCH   6   9
HETATM    9  O   LIG     1      19.820  39.311  19.709  1.00  0.00    -0.390 OA
HETATM   10  H   LIG     1      20.520  38.640  19.916  1.00  0.00     0.210 HD
ENDBRANCH   6   9
BRANCH   5  11
HETATM   11  O   LIG     1      19.461  39.305  22.430  1.00  0.00    -0.388 OA
HETATM   12  H   LIG     1      19.242  39.742  23.294  1.00  0.00     0.210 HD
ENDBRANCH   5  11
BRANCH   4  13
HETATM   13  O   LIG     1      16.943  39.039  23.570  1.00  0.00    -0.369 OA
HETATM   14  H   LIG     1      17.820  38.947  24.029  1.00  0.00     0.212 HD
ENDBRANCH   4  13
TORSDOF 4
ENDMDL
MODEL 4
REMARK VINA RESULT:      -4.8      1.593      3.922
REMARK  4 active torsions:
REMARK  status: ('A' for Active; 'I' for Inactive)
REMARK    1  A    between atoms: O_1  and  C_2 
REMARK    2  A    between atoms: C_5  and  O_6 
REMARK    3  A    between atoms: C_7  and  O_8 
REMARK    4  A    between atoms: C_9  and  O_10 
ROOT
HETATM    1  C   LIG     1      17.489  37.812  21.535  1.00  0.00     0.173 C 
HETATM    2  C   LIG     1      18.539  38.634  22.301  1.00  0.00     0.205 C 
HETATM    3  O   LIG     1      17.977  39.217  23.461  1.00  0.00    -0.356 OA
HETATM    4  C   LIG     1      17.612  38.210  24.389  1.00  0.00     0.288 C 
HETATM    5  C   LIG     1      16.483  37.320  23.815  1.00  0.00     0.204 C 
HETATM    6  C   LIG     1      16.907  36.726  22.453  1.00  0.00     0.182 C 
ENDROOT
BRANCH   1   7
HETATM    7  O   LIG     1      18.080  37.203  20.415  1.00  0.00    -0.391 OA
HETATM    8  H   LIG     1      17.412  37.241  19.683  1.00  0.00     0.210 HD
ENDBRANCH   1   7
BRANCH   6   9
HETATM    9  O   LIG     1      15.813  36.113  21.823  1.00  0.00    -0.390 OA
HETATM   10  H   LIG     1      15.211  36.841  21.520  1.00  0.00     0.210 HD
ENDBRANCH   6   9
BRANCH   5  11
HETATM   11  O   LIG     1      15.270  38.028  23.713  1.00  0.00    -0.388 OA
HETATM   12  H   LIG     1      15.162  38.578  24.532  1.00  0.00     0.210 HD
ENDBRANCH   5  11
BRANCH   4  13
HETATM   13  O   LIG     1      17.174  38.831  25.568  1.00  0.00    -0.369 OA
HETATM   14  H   LIG     1      16.509  39.520  25.301  1.00  0.00     0.212 HD
ENDBRANCH   4  13
TORSDOF 4
ENDMDL
MODEL 5
REMARK VINA RESULT:      -4.7      1.064      3.226
REMARK  4 active torsions:
REMARK  status: ('A' for Active; 'I' for Inactive)
REMARK    1  A    between atoms: O_1  and  C_2 
REMARK    2  A    between atoms: C_5  and  O_6 
REMARK    3  A    between atoms: C_7  and  O_8 
REMARK    4  A    between atoms: C_9  and  O_10 
ROOT
HETATM    1  C   LIG     1      16.894  36.574  23.014  1.00  0.00     0.173 C 
HETATM    2  C   LIG     1      16.916  35.196  23.697  1.00  0.00     0.205 C 
HETATM    3  O   LIG     1      17.842  35.176  24.767  1.00  0.00    -0.356 OA
HETATM    4  C   LIG     1      17.414  36.046  25.802  1.00  0.00     0.288 C 
HETATM    5  C   LIG     1      17.413  37.515  25.316  1.00  0.00     0.204 C 
HETATM    6  C   LIG     1      16.547  37.660  24.045  1.00  0.00     0.182 C 
ENDROOT
BRANCH   1   7
HETATM    7  O   LIG     1      15.934  36.585  21.988  1.00  0.00    -0.391 OA
HETATM    8  H   LIG     1      15.100  36.951  22.382  1.00  0.00     0.210 HD
ENDBRANCH   1   7
BRANCH   6   9
HETATM    9  O   LIG     1      16.725  38.928  23.471  1.00  0.00    -0.390 OA
HETATM   10  H   LIG     1      16.579  39.592  24.193  1.00  0.00     0.210 HD
ENDBRANCH   6   9
BRANCH   5  11
HETATM   11  O   LIG     1      18.721  37.991  25.105  1.00  0.00    -0.388 OA
HETATM   12  H   LIG     1      19.325  37.529  25.742  1.00  0.00     0.210 HD
ENDBRANCH   5  11
BRANCH   4  13
HETATM   13  O   LIG     1      18.291  35.906  26.889  1.00  0.00    -0.369 OA
HETATM   14  H   LIG     1      19.165  35.614  26.518  1.00  0.00     0.212 HD
ENDBRANCH   4  13
TORSDOF 4
ENDMDL
MODEL 6
REMARK VINA RESULT:      -4.6      8.281     10.426
REMARK  4 active torsions:
REMARK  status: ('A' for Active; 'I' for Inactive)
REMARK    1  A    between atoms: O_1  and  C_2 
REMARK    2  A    between atoms: C_5  and  O_6 
REMARK    3  A    between atoms: C_7  and  O_8 
REMARK    4  A    between atoms: C_9  and  O_10 
ROOT
HETATM    1  C   LIG     1      14.167  30.862  15.056  1.00  0.00     0.173 C 
HETATM    2  C   LIG     1      15.521  31.580  14.934  1.00  0.00     0.205 C 
HETATM    3  O   LIG     1      15.474  32.856  15.544  1.00  0.00    -0.356 OA
HETATM    4  C   LIG     1      15.300  32.724  16.944  1.00  0.00     0.288 C 
HETATM    5  C   LIG     1      13.926  32.087  17.267  1.00  0.00     0.204 C 
HETATM    6  C   LIG     1      13.776  30.735  16.536  1.00  0.00     0.182 C 
ENDROOT
BRANCH   1   7
HETATM    7  O   LIG     1      14.251  29.580  14.487  1.00  0.00    -0.391 OA
HETATM    8  H   LIG     1      14.093  29.688  13.513  1.00  0.00     0.210 HD
ENDBRANCH   1   7
BRANCH   6   9
HETATM    9  O   LIG     1      12.457  30.267  16.637  1.00  0.00    -0.390 OA
HETATM   10  H   LIG     1      12.007  30.822  17.326  1.00  0.00     0.210 HD
ENDBRANCH   6   9
BRANCH   5  11
HETATM   11  O   LIG     1      12.866  32.961  16.958  1.00  0.00    -0.388 OA
HETATM   12  H   LIG     1      12.223  32.475  16.380  1.00  0.00     0.210 HD
ENDBRANCH   5  11
BRANCH   4  13
HETATM   13  O   LIG     1      15.379  34.000  17.523  1.00  0.00    -0.369 OA
HETATM   14  H   LIG     1      14.546  34.130  18.048  1.00  0.00     0.212 HD
ENDBRANCH   4  13
TORSDOF 4
ENDMDL
MODEL 7
REMARK VINA RESULT:      -4.5      2.064      3.007
REMARK  4 active torsions:
REMARK  status: ('A' for Active; 'I' for Inactive)
REMARK    1  A    between atoms: O_1  and  C_2 
REMARK    2  A    between atoms: C_5  and  O_6 
REMARK    3  A    between atoms: C_7  and  O_8 
REMARK    4  A    between atoms: C_9  and  O_10 
ROOT
HETATM    1  C   LIG     1      16.734  36.514  22.675  1.00  0.00     0.173 C 
HETATM    2  C   LIG     1      17.664  36.567  21.451  1.00  0.00     0.205 C 
HETATM    3  O   LIG     1      17.808  37.895  20.982  1.00  0.00    -0.356 OA
HETATM    4  C   LIG     1      18.489  38.683  21.943  1.00  0.00     0.288 C 
HETATM    5  C   LIG     1      17.649  38.816  23.237  1.00  0.00     0.204 C 
HETATM    6  C   LIG     1      17.286  37.419  23.787  1.00  0.00     0.182 C 
ENDROOT
BRANCH   1   7
HETATM    7  O   LIG     1      16.644  35.196  23.152  1.00  0.00    -0.391 OA
HETATM    8  H   LIG     1      15.878  35.172  23.783  1.00  0.00     0.210 HD
ENDBRANCH   1   7
BRANCH   6   9
HETATM    9  O   LIG     1      16.339  37.529  24.818  1.00  0.00    -0.390 OA
HETATM   10  H   LIG     1      15.879  36.653  24.879  1.00  0.00     0.210 HD
ENDBRANCH   6   9
BRANCH   5  11
HETATM   11  O   LIG     1      16.500  39.603  23.027  1.00  0.00    -0.388 OA
HETATM   12  H   LIG     1      16.155  39.412  22.116  1.00  0.00     0.210 HD
ENDBRANCH   5  11
BRANCH   4  13
HETATM   13  O   LIG     1      18.718  39.953  21.393  1.00  0.00    -0.369 OA
HETATM   14  H   LIG     1      19.702  40.089  21.381  1.00  0.00     0.212 HD
ENDBRANCH   4  13
TORSDOF 4
ENDMDL
MODEL 8
REMARK VINA RESULT:      -4.5      3.773      5.321
REMARK  4 active torsions:
REMARK  status: ('A' for Active; 'I' for Inactive)
REMARK    1  A    between atoms: O_1  and  C_2 
REMARK    2  A    between atoms: C_5  and  O_6 
REMARK    3  A    between atoms: C_7  and  O_8 
REMARK    4  A    between atoms: C_9  and  O_10 
ROOT
HETATM    1  C   LIG     1      17.858  37.586  21.575  1.00  0.00     0.173 C 
HETATM    2  C   LIG     1      18.364  39.032  21.711  1.00  0.00     0.205 C 
HETATM    3  O   LIG     1      19.611  39.195  21.061  1.00  0.00    -0.356 OA
HETATM    4  C   LIG     1      19.458  39.034  19.661  1.00  0.00     0.288 C 
HETATM    5  C   LIG     1      19.027  37.587  19.320  1.00  0.00     0.204 C 
HETATM    6  C   LIG     1      17.741  37.214  20.089  1.00  0.00     0.182 C 
ENDROOT
BRANCH   1   7
HETATM    7  O   LIG     1      16.599  37.460  22.185  1.00  0.00    -0.391 OA
HETATM    8  H   LIG     1      16.745  36.988  23.046  1.00  0.00     0.210 HD
ENDBRANCH   1   7
BRANCH   6   9
HETATM    9  O   LIG     1      17.476  35.841  19.966  1.00  0.00    -0.390 OA
HETATM   10  H   LIG     1      17.843  35.405  20.778  1.00  0.00     0.210 HD
ENDBRANCH   6   9
BRANCH   5  11
HETATM   11  O   LIG     1      20.064  36.667  19.572  1.00  0.00    -0.388 OA
HETATM   12  H   LIG     1      20.788  37.142  20.057  1.00  0.00     0.210 HD
ENDBRANCH   5  11
BRANCH   4  13
HETATM   13  O   LIG     1      20.685  39.322  19.045  1.00  0.00    -0.369 OA
HETATM   14  H   LIG     1      20.476  39.758  18.177  1.00  0.00     0.212 HD
ENDBRANCH   4  13
TORSDOF 4
ENDMDL
MODEL 9
REMARK VINA RESULT:      -4.5      2.286      3.448
REMARK  4 active torsions:
REMARK  status: ('A' for Active; 'I' for Inactive)
REMARK    1  A    between atoms: O_1  and  C_2 
REMARK    2  A    between atoms: C_5  and  O_6 
REMARK    3  A    between atoms: C_7  and  O_8 
REMARK    4  A    between atoms: C_9  and  O_10 
ROOT
HETATM    1  C   LIG     1      18.352  38.544  21.844  1.00  0.00     0.173 C 
HETATM    2  C   LIG     1      18.485  37.769  20.523  1.00  0.00     0.205 C 
HETATM    3  O   LIG     1      18.162  36.403  20.704  1.00  0.00    -0.356 OA
HETATM    4  C   LIG     1      16.790  36.261  21.028  1.00  0.00     0.288 C 
HETATM    5  C   LIG     1      16.480  36.918  22.395  1.00  0.00     0.204 C 
HETATM    6  C   LIG     1      16.924  38.397  22.393  1.00  0.00     0.182 C 
ENDROOT
BRANCH   1   7
HETATM    7  O   LIG     1      18.629  39.905  21.631  1.00  0.00    -0.391 OA
HETATM    8  H   LIG     1      19.566  39.959  21.309  1.00  0.00     0.210 HD
ENDBRANCH   1   7
BRANCH   6   9
HETATM    9  O   LIG     1      16.861  38.931  23.690  1.00  0.00    -0.390 OA
HETATM   10  H   LIG     1      17.361  38.310  24.280  1.00  0.00     0.210 HD
ENDBRANCH   6   9
BRANCH   5  11
HETATM   11  O   LIG     1      17.070  36.204  23.456  1.00  0.00    -0.388 OA
HETATM   12  H   LIG     1      16.945  36.729  24.289  1.00  0.00     0.210 HD
ENDBRANCH   5  11
BRANCH   4  13
HETATM   13  O   LIG     1      16.485  34.893  21.079  1.00  0.00    -0.369 OA
HETATM   14  H   LIG     1      17.286  34.406  20.750  1.00  0.00     0.212 HD
ENDBRANCH   4  13
TORSDOF 4
ENDMDL
MODEL 10
REMARK VINA RESULT:      -4.4      7.859     10.203
REMARK  4 active torsions:
REMARK  status: ('A' for Active; 'I' for Inactive)
REMARK    1  A    between atoms: O_1  and  C_2 
REMARK    2  A    between atoms: C_5  and  O_6 
REMARK    3  A    between atoms: C_7  and  O_8 
REMARK    4  A    between atoms: C_9  and  O_10 
ROOT
HETATM    1  C   LIG     1      14.972  31.828  15.073  1.00  0.00     0.173 C 
HETATM    2  C   LIG     1      16.077  32.514  15.894  1.00  0.00     0.205 C 
HETATM    3  O   LIG     1      15.537  33.142  17.042  1.00  0.00    -0.356 OA
HETATM    4  C   LIG     1      15.023  32.170  17.937  1.00  0.00     0.288 C 
HETATM    5  C   LIG     1      13.825  31.423  17.303  1.00  0.00     0.204 C 
HETATM    6  C   LIG     1      14.234  30.803  15.948  1.00  0.00     0.182 C 
ENDROOT
BRANCH   1   7
HETATM    7  O   LIG     1      15.536  31.171  13.966  1.00  0.00    -0.391 OA
HETATM    8  H   LIG     1      15.197  31.634  13.156  1.00  0.00     0.210 HD
ENDBRANCH   1   7
BRANCH   6   9
HETATM    9  O   LIG     1      13.104  30.327  15.265  1.00  0.00    -0.390 OA
HETATM   10  H   LIG     1      12.990  30.901  14.464  1.00  0.00     0.210 HD
ENDBRANCH   6   9
BRANCH   5  11
HETATM   11  O   LIG     1      12.705  32.265  17.167  1.00  0.00    -0.388 OA
HETATM   12  H   LIG     1      12.863  32.870  16.397  1.00  0.00     0.210 HD
ENDBRANCH   5  11
BRANCH   4  13
HETATM   13  O   LIG     1      14.611  32.820  19.109  1.00  0.00    -0.369 OA
HETATM   14  H   LIG     1      13.831  33.387  18.865  1.00  0.00     0.212 HD
ENDBRANCH   4  13
TORSDOF 4
ENDMDL
MODEL 11
REMARK VINA RESULT:      -4.3      8.753     11.051
REMARK  4 active torsions:
REMARK  status: ('A' for Active; 'I' for Inactive)
REMARK    1  A    between atoms: O_1  and  C_2 
REMARK    2  A    between atoms: C_5  and  O_6 
REMARK    3  A    between atoms: C_7  and  O_8 
REMARK    4  A    between atoms: C_9  and  O_10 
ROOT
HETATM    1  C   LIG     1      15.459  30.735  14.300  1.00  0.00     0.173 C 
HETATM    2  C   LIG     1      14.439  30.906  15.438  1.00  0.00     0.205 C 
HETATM    3  O   LIG     1      15.001  31.627  16.518  1.00  0.00    -0.356 OA
HETATM    4  C   LIG     1      15.278  32.961  16.126  1.00  0.00     0.288 C 
HETATM    5  C   LIG     1      16.368  32.993  15.028  1.00  0.00     0.204 C 
HETATM    6  C   LIG     1      15.949  32.113  13.829  1.00  0.00     0.182 C 
ENDROOT
BRANCH   1   7
HETATM    7  O   LIG     1      14.866  30.061  13.221  1.00  0.00    -0.391 OA
HETATM    8  H   LIG     1      15.059  29.095  13.346  1.00  0.00     0.210 HD
ENDBRANCH   1   7
BRANCH   6   9
HETATM    9  O   LIG     1      17.023  31.953  12.939  1.00  0.00    -0.390 OA
HETATM   10  H   LIG     1      17.117  32.809  12.447  1.00  0.00     0.210 HD
ENDBRANCH   6   9
BRANCH   5  11
HETATM   11  O   LIG     1      17.624  32.608  15.536  1.00  0.00    -0.388 OA
HETATM   12  H   LIG     1      17.484  31.867  16.181  1.00  0.00     0.210 HD
ENDBRANCH   5  11
BRANCH   4  13
HETATM   13  O   LIG     1      15.719  33.671  17.253  1.00  0.00    -0.369 OA
HETATM   14  H   LIG     1      16.454  34.267  16.949  1.00  0.00     0.212 HD
ENDBRANCH   4  13
TORSDOF 4
ENDMDL
MODEL 12
REMARK VINA RESULT:      -4.3      3.950      4.978
REMARK  4 active torsions:
REMARK  status: ('A' for Active; 'I' for Inactive)
REMARK    1  A    between atoms: O_1  and  C_2 
REMARK    2  A    between atoms: C_5  and  O_6 
REMARK    3  A    between atoms: C_7  and  O_8 
REMARK    4  A    between atoms: C_9  and  O_10 
ROOT
HETATM    1  C   LIG     1      17.822  37.181  20.666  1.00  0.00     0.173 C 
HETATM    2  C   LIG     1      18.986  36.583  19.858  1.00  0.00     0.205 C 
HETATM    3  O   LIG     1      19.563  37.556  19.007  1.00  0.00    -0.356 OA
HETATM    4  C   LIG     1      20.187  38.571  19.775  1.00  0.00     0.288 C 
HETATM    5  C   LIG     1      19.139  39.352  20.604  1.00  0.00     0.204 C 
HETATM    6  C   LIG     1      18.320  38.382  21.484  1.00  0.00     0.182 C 
ENDROOT
BRANCH   1   7
HETATM    7  O   LIG     1      17.297  36.212  21.537  1.00  0.00    -0.391 OA
HETATM    8  H   LIG     1      16.314  36.346  21.554  1.00  0.00     0.210 HD
ENDBRANCH   1   7
BRANCH   6   9
HETATM    9  O   LIG     1      17.224  39.047  22.058  1.00  0.00    -0.390 OA
HETATM   10  H   LIG     1      17.543  39.948  22.323  1.00  0.00     0.210 HD
ENDBRANCH   6   9
BRANCH   5  11
HETATM   11  O   LIG     1      18.304  40.130  19.779  1.00  0.00    -0.388 OA
HETATM   12  H   LIG     1      18.587  41.078  19.858  1.00  0.00     0.210 HD
ENDBRANCH   5  11
BRANCH   4  13
HETATM   13  O   LIG     1      20.847  39.447  18.900  1.00  0.00    -0.369 OA
HETATM   14  H   LIG     1      20.691  40.367  19.240  1.00  0.00     0.212 HD
ENDBRANCH   4  13
TORSDOF 4
ENDMDL
MODEL 13
REMARK VINA RESULT:      -4.3      9.261     10.891
REMARK  4 active torsions:
REMARK  status: ('A' for Active; 'I' for Inactive)
REMARK    1  A    between atoms: O_1  and  C_2 
REMARK    2  A    between atoms: C_5  and  O_6 
REMARK    3  A    between atoms: C_7  and  O_8 
REMARK    4  A    between atoms: C_9  and  O_10 
ROOT
HETATM    1  C   LIG     1      14.226  31.351  16.766  1.00  0.00     0.173 C 
HETATM    2  C   LIG     1      15.170  32.563  16.838  1.00  0.00     0.205 C 
HETATM    3  O   LIG     1      16.333  32.346  16.060  1.00  0.00    -0.356 OA
HETATM    4  C   LIG     1      15.996  32.276  14.685  1.00  0.00     0.288 C 
HETATM    5  C   LIG     1      15.103  31.044  14.402  1.00  0.00     0.204 C 
HETATM    6  C   LIG     1      13.849  31.072  15.303  1.00  0.00     0.182 C 
ENDROOT
BRANCH   1   7
HETATM    7  O   LIG     1      13.059  31.608  17.505  1.00  0.00    -0.391 OA
HETATM    8  H   LIG     1      12.295  31.327  16.938  1.00  0.00     0.210 HD
ENDBRANCH   1   7
BRANCH   6   9
HETATM    9  O   LIG     1      13.157  29.853  15.219  1.00  0.00    -0.390 OA
HETATM   10  H   LIG     1      12.217  30.072  14.990  1.00  0.00     0.210 HD
ENDBRANCH   6   9
BRANCH   5  11
HETATM   11  O   LIG     1      15.820  29.841  14.552  1.00  0.00    -0.388 OA
HETATM   12  H   LIG     1      16.135  29.555  13.656  1.00  0.00     0.210 HD
ENDBRANCH   5  11
BRANCH   4  13
HETATM   13  O   LIG     1      17.183  32.183  13.942  1.00  0.00    -0.369 OA
HETATM   14  H   LIG     1      17.268  31.236  13.653  1.00  0.00     0.212 HD
ENDBRANCH   4  13
TORSDOF 4
ENDMDL
MODEL 14
REMARK VINA RESULT:      -4.3      1.405      2.882
REMARK  4 active torsions:
REMARK  status: ('A' for Active; 'I' for Inactive)
REMARK    1  A    between atoms: O_1  and  C_2 
REMARK    2  A    between atoms: C_5  and  O_6 
REMARK    3  A    between atoms: C_7  and  O_8 
REMARK    4  A    between atoms: C_9  and  O_10 
ROOT
HETATM    1  C   LIG     1      17.506  35.982  24.249  1.00  0.00     0.173 C 
HETATM    2  C   LIG     1      16.876  37.113  25.079  1.00  0.00     0.205 C 
HETATM    3  O   LIG     1      16.706  38.281  24.297  1.00  0.00    -0.356 OA
HETATM    4  C   LIG     1      15.748  38.053  23.278  1.00  0.00     0.288 C 
HETATM    5  C   LIG     1      16.256  36.985  22.278  1.00  0.00     0.204 C 
HETATM    6  C   LIG     1      16.628  35.685  23.024  1.00  0.00     0.182 C 
ENDROOT
BRANCH   1   7
HETATM    7  O   LIG     1      17.620  34.821  25.031  1.00  0.00    -0.391 OA
HETATM    8  H   LIG     1      17.528  34.050  24.412  1.00  0.00     0.210 HD
ENDBRANCH   1   7
BRANCH   6   9
HETATM    9  O   LIG     1      17.300  34.801  22.165  1.00  0.00    -0.390 OA
HETATM   10  H   LIG     1      18.271  34.930  22.325  1.00  0.00     0.210 HD
ENDBRANCH   6   9
BRANCH   5  11
HETATM   11  O   LIG     1      17.336  37.467  21.513  1.00  0.00    -0.388 OA
HETATM   12  H   LIG     1      17.679  36.721  20.956  1.00  0.00     0.210 HD
ENDBRANCH   5  11
BRANCH   4  13
HETATM   13  O   LIG     1      15.520  39.263  22.605  1.00  0.00    -0.369 OA
HETATM   14  H   LIG     1      15.485  39.975  23.297  1.00  0.00     0.212 HD
ENDBRANCH   4  13
TORSDOF 4
ENDMDL
MODEL 15
REMARK VINA RESULT:      -4.2      9.123     10.651
REMARK  4 active torsions:
REMARK  status: ('A' for Active; 'I' for Inactive)
REMARK    1  A    between atoms: O_1  and  C_2 
REMARK    2  A    between atoms: C_5  and  O_6 
REMARK    3  A    between atoms: C_7  and  O_8 
REMARK    4  A    between atoms: C_9  and  O_10 
ROOT
HETATM    1  C   LIG     1      14.196  32.152  16.427  1.00  0.00     0.173 C 
HETATM    2  C   LIG     1      13.642  30.770  16.040  1.00  0.00     0.205 C 
HETATM    3  O   LIG     1      13.941  30.465  14.691  1.00  0.00    -0.356 OA
HETATM    4  C   LIG     1      15.340  30.314  14.520  1.00  0.00     0.288 C 
HETATM    5  C   LIG     1      16.071  31.652  14.787  1.00  0.00     0.204 C 
HETATM    6  C   LIG     1      15.714  32.188  16.191  1.00  0.00     0.182 C 
ENDROOT
BRANCH   1   7
HETATM    7  O   LIG     1      13.931  32.412  17.782  1.00  0.00    -0.391 OA
HETATM    8  H   LIG     1      14.543  31.836  18.309  1.00  0.00     0.210 HD
ENDBRANCH   1   7
BRANCH   6   9
HETATM    9  O   LIG     1      16.184  33.501  16.349  1.00  0.00    -0.390 OA
HETATM   10  H   LIG     1      15.414  34.104  16.179  1.00  0.00     0.210 HD
ENDBRANCH   6   9
BRANCH   5  11
HETATM   11  O   LIG     1      15.790  32.602  13.786  1.00  0.00    -0.388 OA
HETATM   12  H   LIG     1      15.747  33.498  14.212  1.00  0.00     0.210 HD
ENDBRANCH   5  11
BRANCH   4  13
HETATM   13  O   LIG     1      15.583  29.895  13.204  1.00  0.00    -0.369 OA
HETATM   14  H   LIG     1      14.918  29.185  12.999  1.00  0.00     0.212 HD
ENDBRANCH   4  13
TORSDOF 4
ENDMDL
MODEL 16
REMARK VINA RESULT:      -4.2      2.919      3.847
REMARK  4 active torsions:
REMARK  status: ('A' for Active; 'I' for Inactive)
REMARK    1  A    between atoms: O_1  and  C_2 
REMARK    2  A    between atoms: C_5  and  O_6 
REMARK    3  A    between atoms: C_7  and  O_8 
REMARK    4  A    between atoms: C_9  and  O_10 
ROOT
HETATM    1  C   LIG     1      17.122  38.505  22.271  1.00  0.00     0.173 C 
HETATM    2  C   LIG     1      16.865  37.013  21.997  1.00  0.00     0.205 C 
HETATM    3  O   LIG     1      17.087  36.703  20.635  1.00  0.00    -0.356 OA
HETATM    4  C   LIG     1      18.459  36.861  20.314  1.00  0.00     0.288 C 
HETATM    5  C   LIG     1      18.885  38.343  20.450  1.00  0.00     0.204 C 
HETATM    6  C   LIG     1      18.559  38.868  21.865  1.00  0.00     0.182 C 
ENDROOT
BRANCH   1   7
HETATM    7  O   LIG     1      16.942  38.780  23.637  1.00  0.00    -0.391 OA
HETATM    8  H   LIG     1      16.902  37.904  24.102  1.00  0.00     0.210 HD
ENDBRANCH   1   7
BRANCH   6   9
HETATM    9  O   LIG     1      18.727  40.260  21.924  1.00  0.00    -0.390 OA
HETATM   10  H   LIG     1      17.900  40.632  22.325  1.00  0.00     0.210 HD
ENDBRANCH   6   9
BRANCH   5  11
HETATM   11  O   LIG     1      18.294  39.144  19.454  1.00  0.00    -0.388 OA
HETATM   12  H   LIG     1      17.319  39.190  19.631  1.00  0.00     0.210 HD
ENDBRANCH   5  11
BRANCH   4  13
HETATM   13  O   LIG     1      18.658  36.430  18.993  1.00  0.00    -0.369 OA
HETATM   14  H   LIG     1      18.870  35.460  19.036  1.00  0.00     0.212 HD
ENDBRANCH   4  13
TORSDOF 4
ENDMDL
MODEL 17
REMARK VINA RESULT:      -4.2      9.204     10.635
REMARK  4 active torsions:
REMARK  status: ('A' for Active; 'I' for Inactive)
REMARK    1  A    between atoms: O_1  and  C_2 
REMARK    2  A    between atoms: C_5  and  O_6 
REMARK    3  A    between atoms: C_7  and  O_8 
REMARK    4  A    between atoms: C_9  and  O_10 
ROOT
HETATM    1  C   LIG     1      15.426  32.000  14.778  1.00  0.00     0.173 C 
HETATM    2  C   LIG     1      15.995  31.973  13.349  1.00  0.00     0.205 C 
HETATM    3  O   LIG     1      16.591  33.214  13.019  1.00  0.00    -0.356 OA
HETATM    4  C   LIG     1      17.737  33.437  13.822  1.00  0.00     0.288 C 
HETATM    5  C   LIG     1      17.342  33.580  15.312  1.00  0.00     0.204 C 
HETATM    6  C   LIG     1      16.543  32.342  15.776  1.00  0.00     0.182 C 
ENDROOT
BRANCH   1   7
HETATM    7  O   LIG     1      14.884  30.745  15.101  1.00  0.00    -0.391 OA
HETATM    8  H   LIG     1      14.523  30.364  14.259  1.00  0.00     0.210 HD
ENDBRANCH   1   7
BRANCH   6   9
HETATM    9  O   LIG     1      15.987  32.565  17.046  1.00  0.00    -0.390 OA
HETATM   10  H   LIG     1      15.769  33.532  17.098  1.00  0.00     0.210 HD
ENDBRANCH   6   9
BRANCH   5  11
HETATM   11  O   LIG     1      16.630  34.771  15.545  1.00  0.00    -0.388 OA
HETATM   12  H   LIG     1      16.173  35.029  14.703  1.00  0.00     0.210 HD
ENDBRANCH   5  11
BRANCH   4  13
HETATM   13  O   LIG     1      18.365  34.612  13.383  1.00  0.00    -0.369 OA
HETATM   14  H   LIG     1      18.413  35.223  14.165  1.00  0.00     0.212 HD
ENDBRANCH   4  13
TORSDOF 4
ENDMDL
MODEL 18
REMARK VINA RESULT:      -4.1      1.116      3.882
REMARK  4 active torsions:
REMARK  status: ('A' for Active; 'I' for Inactive)
REMARK    1  A    between atoms: O_1  and  C_2 
REMARK    2  A    between atoms: C_5  and  O_6 
REMARK    3  A    between atoms: C_7  and  O_8 
REMARK    4  A    between atoms: C_9  and  O_10 
ROOT
HETATM    1  C   LIG     1      16.292  37.236  23.815  1.00  0.00     0.173 C 
HETATM    2  C   LIG     1      17.033  38.375  24.537  1.00  0.00     0.205 C 
HETATM    3  O   LIG     1      17.406  37.986  25.845  1.00  0.00    -0.356 OA
HETATM    4  C   LIG     1      18.372  36.951  25.792  1.00  0.00     0.288 C 
HETATM    5  C   LIG     1      17.770  35.671  25.163  1.00  0.00     0.204 C 
HETATM    6  C   LIG     1      17.181  35.984  23.770  1.00  0.00     0.182 C 
ENDROOT
BRANCH   1   7
HETATM    7  O   LIG     1      15.975  37.627  22.503  1.00  0.00    -0.391 OA
HETATM    8  H   LIG     1      15.989  36.804  21.949  1.00  0.00     0.210 HD
ENDBRANCH   1   7
BRANCH   6   9
HETATM    9  O   LIG     1      16.435  34.893  23.297  1.00  0.00    -0.390 OA
HETATM   10  H   LIG     1      16.397  34.231  24.034  1.00  0.00     0.210 HD
ENDBRANCH   6   9
BRANCH   5  11
HETATM   11  O   LIG     1      16.810  35.083  26.009  1.00  0.00    -0.388 OA
HETATM   12  H   LIG     1      16.394  34.323  25.524  1.00  0.00     0.210 HD
ENDBRANCH   5  11
BRANCH   4  13
HETATM   13  O   LIG     1      18.803  36.679  27.100  1.00  0.00    -0.369 OA
HETATM   14  H   LIG     1      18.903  37.555  27.558  1.00  0.00     0.212 HD
ENDBRANCH   4  13
TORSDOF 4
ENDMDL
MODEL 19
REMARK VINA RESULT:      -4.0      2.325      3.408
REMARK  4 active torsions:
REMARK  status: ('A' for Active; 'I' for Inactive)
REMARK    1  A    between atoms: O_1  and  C_2 
REMARK    2  A    between atoms: C_5  and  O_6 
REMARK    3  A    between atoms: C_7  and  O_8 
REMARK    4  A    between atoms: C_9  and  O_10 
ROOT
HETATM    1  C   LIG     1      17.454  37.218  23.919  1.00  0.00     0.173 C 
HETATM    2  C   LIG     1      18.276  38.479  24.232  1.00  0.00     0.205 C 
HETATM    3  O   LIG     1      19.058  38.863  23.116  1.00  0.00    -0.356 OA
HETATM    4  C   LIG     1      18.220  39.276  22.050  1.00  0.00     0.288 C 
HETATM    5  C   LIG     1      17.364  38.094  21.537  1.00  0.00     0.204 C 
HETATM    6  C   LIG     1      16.557  37.471  22.698  1.00  0.00     0.182 C 
ENDROOT
BRANCH   1   7
HETATM    7  O   LIG     1      16.650  36.884  25.022  1.00  0.00    -0.391 OA
HETATM    8  H   LIG     1      16.333  35.955  24.874  1.00  0.00     0.210 HD
ENDBRANCH   1   7
BRANCH   6   9
HETATM    9  O   LIG     1      15.963  36.266  22.291  1.00  0.00    -0.390 OA
HETATM   10  H   LIG     1      16.638  35.782  21.750  1.00  0.00     0.210 HD
ENDBRANCH   6   9
BRANCH   5  11
HETATM   11  O   LIG     1      18.155  37.129  20.883  1.00  0.00    -0.388 OA
HETATM   12  H   LIG     1      18.773  36.732  21.550  1.00  0.00     0.210 HD
ENDBRANCH   5  11
BRANCH   4  13
HETATM   13  O   LIG     1      19.030  39.761  21.013  1.00  0.00    -0.369 OA
HETATM   14  H   LIG     1      18.933  39.130  20.252  1.00  0.00     0.212 HD
ENDBRANCH   4  13
TORSDOF 4
ENDMDL
MODEL 20
REMARK VINA RESULT:      -3.7      1.437      2.541
REMARK  4 active torsions:
REMARK  status: ('A' for Active; 'I' for Inactive)
REMARK    1  A    between atoms: O_1  and  C_2 
REMARK    2  A    between atoms: C_5  and  O_6 
REMARK    3  A    between atoms: C_7  and  O_8 
REMARK    4  A    between atoms: C_9  and  O_10 
ROOT
HETATM    1  C   LIG     1      17.895  37.678  24.281  1.00  0.00     0.173 C 
HETATM    2  C   LIG     1      17.601  38.460  22.990  1.00  0.00     0.205 C 
HETATM    3  O   LIG     1      17.512  37.588  21.879  1.00  0.00    -0.356 OA
HETATM    4  C   LIG     1      16.383  36.741  22.011  1.00  0.00     0.288 C 
HETATM    5  C   LIG     1      16.543  35.801  23.231  1.00  0.00     0.204 C 
HETATM    6  C   LIG     1      16.801  36.625  24.512  1.00  0.00     0.182 C 
ENDROOT
BRANCH   1   7
HETATM    7  O   LIG     1      17.932  38.557  25.377  1.00  0.00    -0.391 OA
HETATM    8  H   LIG     1      17.927  37.994  26.195  1.00  0.00     0.210 HD
ENDBRANCH   1   7
BRANCH   6   9
HETATM    9  O   LIG     1      17.174  35.782  25.571  1.00  0.00    -0.390 OA
HETATM   10  H   LIG     1      16.489  35.891  26.280  1.00  0.00     0.210 HD
ENDBRANCH   6   9
BRANCH   5  11
HETATM   11  O   LIG     1      17.557  34.848  23.019  1.00  0.00    -0.388 OA
HETATM   12  H   LIG     1      17.255  34.228  22.305  1.00  0.00     0.210 HD
ENDBRANCH   5  11
BRANCH   4  13
HETATM   13  O   LIG     1      16.261  35.979  20.839  1.00  0.00    -0.369 OA
HETATM   14  H   LIG     1      16.345  35.025  21.105  1.00  0.00     0.212 HD
ENDBRANCH   4  13
TORSDOF 4
ENDMDL
