MODEL 1
REMARK VINA RESULT:      -4.9      0.000      0.000
REMARK  1 active torsions:
REMARK  status: ('A' for Active; 'I' for Inactive)
REMARK    1  A    between atoms: O_1  and  C_2 
ROOT
HETATM    1  C   LIG     1      14.357  32.191  16.763  1.00  0.00     0.112 A 
HETATM    2  C   LIG     1      15.257  33.269  16.660  1.00  0.00     0.092 A 
HETATM    3 CL   LIG     1      15.311  34.507  17.915  1.00  0.00    -0.079 Cl
HETATM    4  C   LIG     1      16.119  33.360  15.551  1.00  0.00     0.082 A 
HETATM    5 CL   LIG     1      17.249  34.709  15.418  1.00  0.00    -0.081 Cl
HETATM    6  C   LIG     1      16.081  32.375  14.547  1.00  0.00     0.081 A 
HETATM    7 CL   LIG     1      17.163  32.488  13.158  1.00  0.00    -0.081 Cl
HETATM    8  C   LIG     1      15.182  31.299  14.652  1.00  0.00     0.082 A 
HETATM    9 CL   LIG     1      15.131  30.061  13.395  1.00  0.00    -0.081 Cl
HETATM   10  C   LIG     1      14.322  31.210  15.760  1.00  0.00     0.092 A 
HETATM   11 CL   LIG     1      13.187  29.869  15.909  1.00  0.00    -0.079 Cl
ENDROOT
BRANCH   1  12
HETATM   12  O   LIG     1      13.488  32.070  17.850  1.00  0.00    -0.357 OA
HETATM   13  H   LIG     1      12.610  31.570  17.805  1.00  0.00     0.217 HD
ENDBRANCH   1  12
TORSDOF 1
ENDMDL
MODEL 2
REMARK VINA RESULT:      -4.9      0.047      3.467
REMARK  1 active torsions:
REMARK  status: ('A' for Active; 'I' for Inactive)
REMARK    1  A    between atoms: O_1  and  C_2 
ROOT
HETATM    1  C   LIG     1      14.373  32.182  16.734  1.00  0.00     0.112 A 
HETATM    2  C   LIG     1      14.347  31.198  15.727  1.00  0.00     0.092 A 
HETATM    3 CL   LIG     1      13.228  29.838  15.838  1.00  0.00    -0.079 Cl
HETATM    4  C   LIG     1      15.216  31.299  14.625  1.00  0.00     0.082 A 
HETATM    5 CL   LIG     1      15.187  30.068  13.360  1.00  0.00    -0.081 Cl
HETATM    6  C   LIG     1      16.110  32.382  14.530  1.00  0.00     0.081 A 
HETATM    7 CL   LIG     1      17.200  32.509  13.148  1.00  0.00    -0.081 Cl
HETATM    8  C   LIG     1      16.133  33.363  15.536  1.00  0.00     0.082 A 
HETATM    9 CL   LIG     1      17.252  34.723  15.421  1.00  0.00    -0.081 Cl
HETATM   10  C   LIG     1      15.264  33.260  16.636  1.00  0.00     0.092 A 
HETATM   11 CL   LIG     1      15.280  34.482  17.908  1.00  0.00    -0.079 Cl
ENDROOT
BRANCH   1  12
HETATM   12  O   LIG     1      13.522  32.113  17.840  1.00  0.00    -0.357 OA
HETATM   13  H   LIG     1      12.564  31.792  17.784  1.00  0.00     0.217 HD
ENDBRANCH   1  12
TORSDOF 1
ENDMDL
MODEL 3
REMARK VINA RESULT:      -4.7      7.423      9.142
REMARK  1 active torsions:
REMARK  status: ('A' for Active; 'I' for Inactive)
REMARK    1  A    between atoms: O_1  and  C_2 
ROOT
HETATM    1  C   LIG     1      18.287  38.772  22.201  1.00  0.00     0.112 A 
HETATM    2  C   LIG     1      17.717  37.946  23.189  1.00  0.00     0.092 A 
HETATM    3 CL   LIG     1      17.580  38.513  24.854  1.00  0.00    -0.079 Cl
HETATM    4  C   LIG     1      17.254  36.661  22.848  1.00  0.00     0.082 A 
HETATM    5 CL   LIG     1      16.540  35.622  24.083  1.00  0.00    -0.081 Cl
HETATM    6  C   LIG     1      17.361  36.204  21.522  1.00  0.00     0.081 A 
HETATM    7 CL   LIG     1      16.780  34.594  21.093  1.00  0.00    -0.081 Cl
HETATM    8  C   LIG     1      17.930  37.031  20.537  1.00  0.00     0.082 A 
HETATM    9 CL   LIG     1      18.066  36.462  18.872  1.00  0.00    -0.081 Cl
HETATM   10  C   LIG     1      18.392  38.313  20.880  1.00  0.00     0.092 A 
HETATM   11 CL   LIG     1      19.108  39.364  19.659  1.00  0.00    -0.079 Cl
ENDROOT
BRANCH   1  12
HETATM   12  O   LIG     1      18.756  40.053  22.506  1.00  0.00    -0.357 OA
HETATM   13  H   LIG     1      19.601  40.442  22.110  1.00  0.00     0.217 HD
ENDBRANCH   1  12
TORSDOF 1
ENDMDL
MODEL 4
REMARK VINA RESULT:      -4.6      1.881      3.434
REMARK  1 active torsions:
REMARK  status: ('A' for Active; 'I' for Inactive)
REMARK    1  A    between atoms: O_1  and  C_2 
ROOT
HETATM    1  C   LIG     1      15.741  31.360  14.004  1.00  0.00     0.112 A 
HETATM    2  C   LIG     1      16.533  32.521  14.086  1.00  0.00     0.092 A 
HETATM    3 CL   LIG     1      17.714  32.886  12.826  1.00  0.00    -0.079 Cl
HETATM    4  C   LIG     1      16.382  33.398  15.177  1.00  0.00     0.082 A 
HETATM    5 CL   LIG     1      17.373  34.855  15.284  1.00  0.00    -0.081 Cl
HETATM    6  C   LIG     1      15.442  33.113  16.184  1.00  0.00     0.081 A 
HETATM    7 CL   LIG     1      15.253  34.211  17.552  1.00  0.00    -0.081 Cl
HETATM    8  C   LIG     1      14.652  31.953  16.100  1.00  0.00     0.082 A 
HETATM    9 CL   LIG     1      13.471  31.591  17.361  1.00  0.00    -0.081 Cl
HETATM   10  C   LIG     1      14.805  31.079  15.009  1.00  0.00     0.092 A 
HETATM   11 CL   LIG     1      13.823  29.619  14.887  1.00  0.00    -0.079 Cl
ENDROOT
BRANCH   1  12
HETATM   12  O   LIG     1      15.865  30.470  12.934  1.00  0.00    -0.357 OA
HETATM   13  H   LIG     1      15.071  30.047  12.470  1.00  0.00     0.217 HD
ENDBRANCH   1  12
TORSDOF 1
ENDMDL
MODEL 5
REMARK VINA RESULT:      -4.6      1.791      3.982
REMARK  1 active torsions:
REMARK  status: ('A' for Active; 'I' for Inactive)
REMARK    1  A    between atoms: O_1  and  C_2 
ROOT
HETATM    1  C   LIG     1      16.349  33.647  15.454  1.00  0.00     0.112 A 
HETATM    2  C   LIG     1      16.475  32.805  14.333  1.00  0.00     0.092 A 
HETATM    3 CL   LIG     1      17.609  33.203  13.041  1.00  0.00    -0.079 Cl
HETATM    4  C   LIG     1      15.693  31.638  14.240  1.00  0.00     0.082 A 
HETATM    5 CL   LIG     1      15.848  30.579  12.836  1.00  0.00    -0.081 Cl
HETATM    6  C   LIG     1      14.788  31.314  15.267  1.00  0.00     0.081 A 
HETATM    7 CL   LIG     1      13.808  29.851  15.151  1.00  0.00    -0.081 Cl
HETATM    8  C   LIG     1      14.664  32.156  16.386  1.00  0.00     0.082 A 
HETATM    9 CL   LIG     1      13.529  31.754  17.677  1.00  0.00    -0.081 Cl
HETATM   10  C   LIG     1      15.445  33.321  16.476  1.00  0.00     0.092 A 
HETATM   11 CL   LIG     1      15.303  34.389  17.872  1.00  0.00    -0.079 Cl
ENDROOT
BRANCH   1  12
HETATM   12  O   LIG     1      17.110  34.812  15.578  1.00  0.00    -0.357 OA
HETATM   13  H   LIG     1      17.775  35.116  14.879  1.00  0.00     0.217 HD
ENDBRANCH   1  12
TORSDOF 1
ENDMDL
MODEL 6
REMARK VINA RESULT:      -4.6      7.385      9.178
REMARK  1 active torsions:
REMARK  status: ('A' for Active; 'I' for Inactive)
REMARK    1  A    between atoms: O_1  and  C_2 
ROOT
HETATM    1  C   LIG     1      18.249  38.747  22.184  1.00  0.00     0.112 A 
HETATM    2  C   LIG     1      18.363  38.289  20.857  1.00  0.00     0.092 A 
HETATM    3 CL   LIG     1      19.077  39.320  19.617  1.00  0.00    -0.079 Cl
HETATM    4  C   LIG     1      17.905  37.002  20.517  1.00  0.00     0.082 A 
HETATM    5 CL   LIG     1      18.046  36.424  18.855  1.00  0.00    -0.081 Cl
HETATM    6  C   LIG     1      17.335  36.175  21.502  1.00  0.00     0.081 A 
HETATM    7 CL   LIG     1      16.761  34.561  21.076  1.00  0.00    -0.081 Cl
HETATM    8  C   LIG     1      17.222  36.634  22.826  1.00  0.00     0.082 A 
HETATM    9 CL   LIG     1      16.508  35.600  24.065  1.00  0.00    -0.081 Cl
HETATM   10  C   LIG     1      17.680  37.919  23.163  1.00  0.00     0.092 A 
HETATM   11 CL   LIG     1      17.547  38.512  24.819  1.00  0.00    -0.079 Cl
ENDROOT
BRANCH   1  12
HETATM   12  O   LIG     1      18.694  40.018  22.555  1.00  0.00    -0.357 OA
HETATM   13  H   LIG     1      19.337  40.565  21.997  1.00  0.00     0.217 HD
ENDBRANCH   1  12
TORSDOF 1
ENDMDL
MODEL 7
REMARK VINA RESULT:      -4.6      1.802      3.434
REMARK  1 active torsions:
REMARK  status: ('A' for Active; 'I' for Inactive)
REMARK    1  A    between atoms: O_1  and  C_2 
ROOT
HETATM    1  C   LIG     1      16.363  33.648  15.452  1.00  0.00     0.112 A 
HETATM    2  C   LIG     1      15.460  33.329  16.484  1.00  0.00     0.092 A 
HETATM    3 CL   LIG     1      15.307  34.381  17.892  1.00  0.00    -0.079 Cl
HETATM    4  C   LIG     1      14.674  32.165  16.393  1.00  0.00     0.082 A 
HETATM    5 CL   LIG     1      13.541  31.760  17.685  1.00  0.00    -0.081 Cl
HETATM    6  C   LIG     1      14.791  31.323  15.272  1.00  0.00     0.081 A 
HETATM    7 CL   LIG     1      13.805  29.863  15.158  1.00  0.00    -0.081 Cl
HETATM    8  C   LIG     1      15.692  31.644  14.243  1.00  0.00     0.082 A 
HETATM    9 CL   LIG     1      15.842  30.590  12.835  1.00  0.00    -0.081 Cl
HETATM   10  C   LIG     1      16.477  32.806  14.336  1.00  0.00     0.092 A 
HETATM   11 CL   LIG     1      17.613  33.225  13.055  1.00  0.00    -0.079 Cl
ENDROOT
BRANCH   1  12
HETATM   12  O   LIG     1      17.157  34.796  15.510  1.00  0.00    -0.357 OA
HETATM   13  H   LIG     1      16.781  35.734  15.452  1.00  0.00     0.217 HD
ENDBRANCH   1  12
TORSDOF 1
ENDMDL
MODEL 8
REMARK VINA RESULT:      -4.6      1.886      4.414
REMARK  1 active torsions:
REMARK  status: ('A' for Active; 'I' for Inactive)
REMARK    1  A    between atoms: O_1  and  C_2 
ROOT
HETATM    1  C   LIG     1      15.735  31.384  14.000  1.00  0.00     0.112 A 
HETATM    2  C   LIG     1      14.795  31.090  15.007  1.00  0.00     0.092 A 
HETATM    3 CL   LIG     1      13.799  29.638  14.900  1.00  0.00    -0.079 Cl
HETATM    4  C   LIG     1      14.649  31.958  16.105  1.00  0.00     0.082 A 
HETATM    5 CL   LIG     1      13.473  31.594  17.370  1.00  0.00    -0.081 Cl
HETATM    6  C   LIG     1      15.441  33.117  16.196  1.00  0.00     0.081 A 
HETATM    7 CL   LIG     1      15.259  34.205  17.574  1.00  0.00    -0.081 Cl
HETATM    8  C   LIG     1      16.379  33.408  15.190  1.00  0.00     0.082 A 
HETATM    9 CL   LIG     1      17.375  34.861  15.300  1.00  0.00    -0.081 Cl
HETATM   10  C   LIG     1      16.523  32.541  14.094  1.00  0.00     0.092 A 
HETATM   11 CL   LIG     1      17.693  32.889  12.823  1.00  0.00    -0.079 Cl
ENDROOT
BRANCH   1  12
HETATM   12  O   LIG     1      15.906  30.544  12.897  1.00  0.00    -0.357 OA
HETATM   13  H   LIG     1      16.370  29.646  12.951  1.00  0.00     0.217 HD
ENDBRANCH   1  12
TORSDOF 1
ENDMDL
MODEL 9
REMARK VINA RESULT:      -4.5      2.018      4.862
REMARK  1 active torsions:
REMARK  status: ('A' for Active; 'I' for Inactive)
REMARK    1  A    between atoms: O_1  and  C_2 
ROOT
HETATM    1  C   LIG     1      16.365  32.111  14.073  1.00  0.00     0.112 A 
HETATM    2  C   LIG     1      15.482  31.017  14.159  1.00  0.00     0.092 A 
HETATM    3 CL   LIG     1      15.517  29.745  12.937  1.00  0.00    -0.079 Cl
HETATM    4  C   LIG     1      14.566  30.936  15.225  1.00  0.00     0.082 A 
HETATM    5 CL   LIG     1      13.457  29.567  15.336  1.00  0.00    -0.081 Cl
HETATM    6  C   LIG     1      14.533  31.947  16.203  1.00  0.00     0.081 A 
HETATM    7 CL   LIG     1      13.386  31.846  17.539  1.00  0.00    -0.081 Cl
HETATM    8  C   LIG     1      15.416  33.038  16.116  1.00  0.00     0.082 A 
HETATM    9 CL   LIG     1      15.379  34.308  17.340  1.00  0.00    -0.081 Cl
HETATM   10  C   LIG     1      16.329  33.117  15.050  1.00  0.00     0.092 A 
HETATM   11 CL   LIG     1      17.444  34.477  14.924  1.00  0.00    -0.079 Cl
ENDROOT
BRANCH   1  12
HETATM   12  O   LIG     1      17.287  32.221  13.029  1.00  0.00    -0.357 OA
HETATM   13  H   LIG     1      17.030  32.147  12.053  1.00  0.00     0.217 HD
ENDBRANCH   1  12
TORSDOF 1
ENDMDL
MODEL 10
REMARK VINA RESULT:      -4.5      2.024      3.409
REMARK  1 active torsions:
REMARK  status: ('A' for Active; 'I' for Inactive)
REMARK    1  A    between atoms: O_1  and  C_2 
ROOT
HETATM    1  C   LIG     1      16.372  32.149  14.071  1.00  0.00     0.112 A 
HETATM    2  C   LIG     1      16.343  33.159  15.052  1.00  0.00     0.092 A 
HETATM    3 CL   LIG     1      17.440  34.537  14.946  1.00  0.00    -0.079 Cl
HETATM    4  C   LIG     1      15.433  33.071  16.122  1.00  0.00     0.082 A 
HETATM    5 CL   LIG     1      15.392  34.335  17.354  1.00  0.00    -0.081 Cl
HETATM    6  C   LIG     1      14.556  31.975  16.212  1.00  0.00     0.081 A 
HETATM    7 CL   LIG     1      13.415  31.865  17.554  1.00  0.00    -0.081 Cl
HETATM    8  C   LIG     1      14.586  30.968  15.231  1.00  0.00     0.082 A 
HETATM    9 CL   LIG     1      13.487  29.592  15.339  1.00  0.00    -0.081 Cl
HETATM   10  C   LIG     1      15.496  31.058  14.163  1.00  0.00     0.092 A 
HETATM   11 CL   LIG     1      15.549  29.805  12.924  1.00  0.00    -0.079 Cl
ENDROOT
BRANCH   1  12
HETATM   12  O   LIG     1      17.262  32.206  12.995  1.00  0.00    -0.357 OA
HETATM   13  H   LIG     1      16.971  32.400  12.045  1.00  0.00     0.217 HD
ENDBRANCH   1  12
TORSDOF 1
ENDMDL
MODEL 11
REMARK VINA RESULT:      -4.4      6.809      8.715
REMARK  1 active torsions:
REMARK  status: ('A' for Active; 'I' for Inactive)
REMARK    1  A    between atoms: O_1  and  C_2 
ROOT
HETATM    1  C   LIG     1      17.623  36.632  20.264  1.00  0.00     0.112 A 
HETATM    2  C   LIG     1      18.147  37.907  20.552  1.00  0.00     0.092 A 
HETATM    3 CL   LIG     1      18.764  38.930  19.254  1.00  0.00    -0.079 Cl
HETATM    4  C   LIG     1      18.178  38.369  21.881  1.00  0.00     0.082 A 
HETATM    5 CL   LIG     1      18.834  39.967  22.246  1.00  0.00    -0.081 Cl
HETATM    6  C   LIG     1      17.687  37.558  22.920  1.00  0.00     0.081 A 
HETATM    7 CL   LIG     1      17.725  38.137  24.586  1.00  0.00    -0.081 Cl
HETATM    8  C   LIG     1      17.164  36.285  22.631  1.00  0.00     0.082 A 
HETATM    9 CL   LIG     1      16.546  35.264  23.931  1.00  0.00    -0.081 Cl
HETATM   10  C   LIG     1      17.134  35.825  21.303  1.00  0.00     0.092 A 
HETATM   11 CL   LIG     1      16.483  34.232  20.920  1.00  0.00    -0.079 Cl
ENDROOT
BRANCH   1  12
HETATM   12  O   LIG     1      17.577  36.143  18.956  1.00  0.00    -0.357 OA
HETATM   13  H   LIG     1      17.716  35.168  18.724  1.00  0.00     0.217 HD
ENDBRANCH   1  12
TORSDOF 1
ENDMDL
MODEL 12
REMARK VINA RESULT:      -4.4      6.721      9.114
REMARK  1 active torsions:
REMARK  status: ('A' for Active; 'I' for Inactive)
REMARK    1  A    between atoms: O_1  and  C_2 
ROOT
HETATM    1  C   LIG     1      17.584  36.530  20.175  1.00  0.00     0.112 A 
HETATM    2  C   LIG     1      17.100  35.738  21.234  1.00  0.00     0.092 A 
HETATM    3 CL   LIG     1      16.408  34.147  20.912  1.00  0.00    -0.079 Cl
HETATM    4  C   LIG     1      17.168  36.215  22.556  1.00  0.00     0.082 A 
HETATM    5 CL   LIG     1      16.562  35.226  23.886  1.00  0.00    -0.081 Cl
HETATM    6  C   LIG     1      17.719  37.483  22.819  1.00  0.00     0.081 A 
HETATM    7 CL   LIG     1      17.806  38.082  24.477  1.00  0.00    -0.081 Cl
HETATM    8  C   LIG     1      18.203  38.272  21.761  1.00  0.00     0.082 A 
HETATM    9 CL   LIG     1      18.896  39.862  22.085  1.00  0.00    -0.081 Cl
HETATM   10  C   LIG     1      18.133  37.793  20.441  1.00  0.00     0.092 A 
HETATM   11 CL   LIG     1      18.734  38.768  19.101  1.00  0.00    -0.079 Cl
ENDROOT
BRANCH   1  12
HETATM   12  O   LIG     1      17.532  36.085  18.852  1.00  0.00    -0.357 OA
HETATM   13  H   LIG     1      16.814  36.372  18.199  1.00  0.00     0.217 HD
ENDBRANCH   1  12
TORSDOF 1
ENDMDL
MODEL 13
REMARK VINA RESULT:      -4.2      1.372      3.495
REMARK  1 active torsions:
REMARK  status: ('A' for Active; 'I' for Inactive)
REMARK    1  A    between atoms: O_1  and  C_2 
ROOT
HETATM    1  C   LIG     1      15.645  33.387  16.286  1.00  0.00     0.112 A 
HETATM    2  C   LIG     1      14.805  32.261  16.384  1.00  0.00     0.092 A 
HETATM    3 CL   LIG     1      13.750  32.055  17.784  1.00  0.00    -0.079 Cl
HETATM    4  C   LIG     1      14.804  31.295  15.361  1.00  0.00     0.082 A 
HETATM    5 CL   LIG     1      13.753  29.882  15.480  1.00  0.00    -0.081 Cl
HETATM    6  C   LIG     1      15.643  31.454  14.243  1.00  0.00     0.081 A 
HETATM    7 CL   LIG     1      15.642  30.242  12.959  1.00  0.00    -0.081 Cl
HETATM    8  C   LIG     1      16.480  32.579  14.147  1.00  0.00     0.082 A 
HETATM    9 CL   LIG     1      17.534  32.783  12.745  1.00  0.00    -0.081 Cl
HETATM   10  C   LIG     1      16.479  33.542  15.170  1.00  0.00     0.092 A 
HETATM   11 CL   LIG     1      17.523  34.960  15.067  1.00  0.00    -0.079 Cl
ENDROOT
BRANCH   1  12
HETATM   12  O   LIG     1      15.669  34.365  17.284  1.00  0.00    -0.357 OA
HETATM   13  H   LIG     1      15.839  34.158  18.259  1.00  0.00     0.217 HD
ENDBRANCH   1  12
TORSDOF 1
ENDMDL
MODEL 14
REMARK VINA RESULT:      -4.2      6.590      8.533
REMARK  1 active torsions:
REMARK  status: ('A' for Active; 'I' for Inactive)
REMARK    1  A    between atoms: O_1  and  C_2 
ROOT
HETATM    1  C   LIG     1      17.072  36.158  20.413  1.00  0.00     0.112 A 
HETATM    2  C   LIG     1      18.004  37.121  19.981  1.00  0.00     0.092 A 
HETATM    3 CL   LIG     1      18.521  37.167  18.294  1.00  0.00    -0.079 Cl
HETATM    4  C   LIG     1      18.527  38.053  20.897  1.00  0.00     0.082 A 
HETATM    5 CL   LIG     1      19.695  39.262  20.359  1.00  0.00    -0.081 Cl
HETATM    6  C   LIG     1      18.118  38.021  22.243  1.00  0.00     0.081 A 
HETATM    7 CL   LIG     1      18.773  39.189  23.392  1.00  0.00    -0.081 Cl
HETATM    8  C   LIG     1      17.187  37.059  22.672  1.00  0.00     0.082 A 
HETATM    9 CL   LIG     1      16.672  37.016  24.360  1.00  0.00    -0.081 Cl
HETATM   10  C   LIG     1      16.667  36.129  21.755  1.00  0.00     0.092 A 
HETATM   11 CL   LIG     1      15.499  34.915  22.275  1.00  0.00    -0.079 Cl
ENDROOT
BRANCH   1  12
HETATM   12  O   LIG     1      16.533  35.219  19.529  1.00  0.00    -0.357 OA
HETATM   13  H   LIG     1      15.543  35.021  19.467  1.00  0.00     0.217 HD
ENDBRANCH   1  12
TORSDOF 1
ENDMDL
MODEL 15
REMARK VINA RESULT:      -4.2      1.356      2.417
REMARK  1 active torsions:
REMARK  status: ('A' for Active; 'I' for Inactive)
REMARK    1  A    between atoms: O_1  and  C_2 
ROOT
HETATM    1  C   LIG     1      15.651  33.394  16.294  1.00  0.00     0.112 A 
HETATM    2  C   LIG     1      16.489  33.557  15.174  1.00  0.00     0.092 A 
HETATM    3 CL   LIG     1      17.545  34.965  15.048  1.00  0.00    -0.079 Cl
HETATM    4  C   LIG     1      16.486  32.592  14.149  1.00  0.00     0.082 A 
HETATM    5 CL   LIG     1      17.534  32.792  12.743  1.00  0.00    -0.081 Cl
HETATM    6  C   LIG     1      15.647  31.467  14.245  1.00  0.00     0.081 A 
HETATM    7 CL   LIG     1      15.643  30.257  12.960  1.00  0.00    -0.081 Cl
HETATM    8  C   LIG     1      14.812  31.306  15.364  1.00  0.00     0.082 A 
HETATM    9 CL   LIG     1      13.757  29.896  15.488  1.00  0.00    -0.081 Cl
HETATM   10  C   LIG     1      14.816  32.271  16.386  1.00  0.00     0.092 A 
HETATM   11 CL   LIG     1      13.776  32.087  17.798  1.00  0.00    -0.079 Cl
ENDROOT
BRANCH   1  12
HETATM   12  O   LIG     1      15.631  34.332  17.330  1.00  0.00    -0.357 OA
HETATM   13  H   LIG     1      16.035  34.161  18.241  1.00  0.00     0.217 HD
ENDBRANCH   1  12
TORSDOF 1
ENDMDL
MODEL 16
REMARK VINA RESULT:      -4.1      6.387      8.097
REMARK  1 active torsions:
REMARK  status: ('A' for Active; 'I' for Inactive)
REMARK    1  A    between atoms: O_1  and  C_2 
ROOT
HETATM    1  C   LIG     1      16.507  36.230  22.036  1.00  0.00     0.112 A 
HETATM    2  C   LIG     1      17.115  37.200  22.856  1.00  0.00     0.092 A 
HETATM    3 CL   LIG     1      16.648  37.356  24.550  1.00  0.00    -0.079 Cl
HETATM    4  C   LIG     1      18.103  38.049  22.322  1.00  0.00     0.082 A 
HETATM    5 CL   LIG     1      18.869  39.267  23.345  1.00  0.00    -0.081 Cl
HETATM    6  C   LIG     1      18.480  37.928  20.972  1.00  0.00     0.081 A 
HETATM    7 CL   LIG     1      19.719  38.993  20.303  1.00  0.00    -0.081 Cl
HETATM    8  C   LIG     1      17.872  36.959  20.156  1.00  0.00     0.082 A 
HETATM    9 CL   LIG     1      18.342  36.804  18.462  1.00  0.00    -0.081 Cl
HETATM   10  C   LIG     1      16.886  36.112  20.691  1.00  0.00     0.092 A 
HETATM   11 CL   LIG     1      16.111  34.891  19.683  1.00  0.00    -0.079 Cl
ENDROOT
BRANCH   1  12
HETATM   12  O   LIG     1      15.524  35.370  22.534  1.00  0.00    -0.357 OA
HETATM   13  H   LIG     1      15.439  34.403  22.252  1.00  0.00     0.217 HD
ENDBRANCH   1  12
TORSDOF 1
ENDMDL
MODEL 17
REMARK VINA RESULT:      -4.0      6.413      8.654
REMARK  1 active torsions:
REMARK  status: ('A' for Active; 'I' for Inactive)
REMARK    1  A    between atoms: O_1  and  C_2 
ROOT
HETATM    1  C   LIG     1      16.540  36.216  22.078  1.00  0.00     0.112 A 
HETATM    2  C   LIG     1      16.902  36.099  20.723  1.00  0.00     0.092 A 
HETATM    3 CL   LIG     1      16.145  34.877  19.700  1.00  0.00    -0.079 Cl
HETATM    4  C   LIG     1      17.871  36.962  20.179  1.00  0.00     0.082 A 
HETATM    5 CL   LIG     1      18.328  36.819  18.479  1.00  0.00    -0.081 Cl
HETATM    6  C   LIG     1      18.478  37.939  20.989  1.00  0.00     0.081 A 
HETATM    7 CL   LIG     1      19.694  39.021  20.307  1.00  0.00    -0.081 Cl
HETATM    8  C   LIG     1      18.115  38.054  22.342  1.00  0.00     0.082 A 
HETATM    9 CL   LIG     1      18.874  39.278  23.363  1.00  0.00    -0.081 Cl
HETATM   10  C   LIG     1      17.147  37.191  22.883  1.00  0.00     0.092 A 
HETATM   11 CL   LIG     1      16.678  37.320  24.578  1.00  0.00    -0.079 Cl
ENDROOT
BRANCH   1  12
HETATM   12  O   LIG     1      15.580  35.376  22.650  1.00  0.00    -0.357 OA
HETATM   13  H   LIG     1      15.731  34.388  22.807  1.00  0.00     0.217 HD
ENDBRANCH   1  12
TORSDOF 1
ENDMDL
MODEL 18
REMARK VINA RESULT:      -4.0      6.530      8.620
REMARK  1 active torsions:
REMARK  status: ('A' for Active; 'I' for Inactive)
REMARK    1  A    between atoms: O_1  and  C_2 
ROOT
HETATM    1  C   LIG     1      15.923  37.509  22.551  1.00  0.00     0.112 A 
HETATM    2  C   LIG     1      15.725  36.450  21.644  1.00  0.00     0.092 A 
HETATM    3 CL   LIG     1      14.284  35.439  21.754  1.00  0.00    -0.079 Cl
HETATM    4  C   LIG     1      16.682  36.195  20.643  1.00  0.00     0.082 A 
HETATM    5 CL   LIG     1      16.438  34.869  19.504  1.00  0.00    -0.081 Cl
HETATM    6  C   LIG     1      17.833  36.998  20.549  1.00  0.00     0.081 A 
HETATM    7 CL   LIG     1      19.032  36.680  19.294  1.00  0.00    -0.081 Cl
HETATM    8  C   LIG     1      18.028  38.055  21.456  1.00  0.00     0.082 A 
HETATM    9 CL   LIG     1      19.471  39.065  21.342  1.00  0.00    -0.081 Cl
HETATM   10  C   LIG     1      17.072  38.307  22.454  1.00  0.00     0.092 A 
HETATM   11 CL   LIG     1      17.299  39.628  23.600  1.00  0.00    -0.079 Cl
ENDROOT
BRANCH   1  12
HETATM   12  O   LIG     1      14.993  37.789  23.555  1.00  0.00    -0.357 OA
HETATM   13  H   LIG     1      14.556  37.073  24.121  1.00  0.00     0.217 HD
ENDBRANCH   1  12
TORSDOF 1
ENDMDL
MODEL 19
REMARK VINA RESULT:      -4.0      1.305      2.628
REMARK  1 active torsions:
REMARK  status: ('A' for Active; 'I' for Inactive)
REMARK    1  A    between atoms: O_1  and  C_2 
ROOT
HETATM    1  C   LIG     1      14.715  31.086  15.334  1.00  0.00     0.112 A 
HETATM    2  C   LIG     1      14.647  32.024  16.382  1.00  0.00     0.092 A 
HETATM    3 CL   LIG     1      13.559  31.759  17.746  1.00  0.00    -0.079 Cl
HETATM    4  C   LIG     1      15.452  33.178  16.345  1.00  0.00     0.082 A 
HETATM    5 CL   LIG     1      15.370  34.356  17.657  1.00  0.00    -0.081 Cl
HETATM    6  C   LIG     1      16.322  33.394  15.260  1.00  0.00     0.081 A 
HETATM    7 CL   LIG     1      17.331  34.841  15.213  1.00  0.00    -0.081 Cl
HETATM    8  C   LIG     1      16.388  32.457  14.215  1.00  0.00     0.082 A 
HETATM    9 CL   LIG     1      17.478  32.724  12.853  1.00  0.00    -0.081 Cl
HETATM   10  C   LIG     1      15.584  31.305  14.255  1.00  0.00     0.092 A 
HETATM   11 CL   LIG     1      15.653  30.118  12.953  1.00  0.00    -0.079 Cl
ENDROOT
BRANCH   1  12
HETATM   12  O   LIG     1      13.931  29.930  15.341  1.00  0.00    -0.357 OA
HETATM   13  H   LIG     1      14.012  29.210  16.048  1.00  0.00     0.217 HD
ENDBRANCH   1  12
TORSDOF 1
ENDMDL
MODEL 20
REMARK VINA RESULT:      -4.0      1.283      3.459
REMARK  1 active torsions:
REMARK  status: ('A' for Active; 'I' for Inactive)
REMARK    1  A    between atoms: O_1  and  C_2 
ROOT
HETATM    1  C   LIG     1      14.700  31.089  15.348  1.00  0.00     0.112 A 
HETATM    2  C   LIG     1      15.571  31.295  14.261  1.00  0.00     0.092 A 
HETATM    3 CL   LIG     1      15.654  30.119  12.949  1.00  0.00    -0.079 Cl
HETATM    4  C   LIG     1      16.380  32.446  14.219  1.00  0.00     0.082 A 
HETATM    5 CL   LIG     1      17.473  32.710  12.858  1.00  0.00    -0.081 Cl
HETATM    6  C   LIG     1      16.318  33.389  15.262  1.00  0.00     0.081 A 
HETATM    7 CL   LIG     1      17.332  34.832  15.209  1.00  0.00    -0.081 Cl
HETATM    8  C   LIG     1      15.448  33.181  16.346  1.00  0.00     0.082 A 
HETATM    9 CL   LIG     1      15.366  34.360  17.657  1.00  0.00    -0.081 Cl
HETATM   10  C   LIG     1      14.641  32.030  16.386  1.00  0.00     0.092 A 
HETATM   11 CL   LIG     1      13.544  31.752  17.738  1.00  0.00    -0.079 Cl
ENDROOT
BRANCH   1  12
HETATM   12  O   LIG     1      13.883  29.958  15.421  1.00  0.00    -0.357 OA
HETATM   13  H   LIG     1      12.962  29.912  15.005  1.00  0.00     0.217 HD
ENDBRANCH   1  12
TORSDOF 1
ENDMDL
