REMARK  1 active torsions:
REMARK  status: ('A' for Active; 'I' for Inactive)
REMARK    1  A    between atoms: O_1  and  C_2 
ROOT
HETATM    1  C   LIG     1      -1.008   0.605   0.019  1.00  0.00     0.112 A 
HETATM    2  C   LIG     1       0.253   1.214   0.167  1.00  0.00     0.092 A 
HETATM    3 CL   LIG     1       0.379   2.959   0.395  1.00  0.00    -0.079 Cl
HETATM    4  C   LIG     1       1.420   0.428   0.134  1.00  0.00     0.082 A 
HETATM    5 CL   LIG     1       3.003   1.187   0.319  1.00  0.00    -0.081 Cl
HETATM    6  C   LIG     1       1.326  -0.964  -0.047  1.00  0.00     0.081 A 
HETATM    7 CL   LIG     1       2.789  -1.950  -0.088  1.00  0.00    -0.081 Cl
HETATM    8  C   LIG     1       0.066  -1.570  -0.194  1.00  0.00     0.082 A 
HETATM    9 CL   LIG     1      -0.057  -3.316  -0.421  1.00  0.00    -0.081 Cl
HETATM   10  C   LIG     1      -1.098  -0.783  -0.161  1.00  0.00     0.092 A 
HETATM   11 CL   LIG     1      -2.687  -1.525  -0.344  1.00  0.00    -0.079 Cl
ENDROOT
BRANCH   1  12
HETATM   12  O   LIG     1      -2.186   1.356   0.048  1.00  0.00    -0.357 OA
HETATM   13  H   LIG     1      -2.200   2.360   0.173  1.00  0.00     0.217 HD
ENDBRANCH   1  12
TORSDOF 1
