MODEL 1
REMARK VINA RESULT:      -5.0      0.000      0.000
REMARK  0 active torsions:
REMARK  status: ('A' for Active; 'I' for Inactive)
ROOT
HETATM    1  C   LIG     1      16.563  36.834  23.078  1.00  0.00     0.152 C 
HETATM    2  N   LIG     1      17.129  36.404  24.351  1.00  0.00    -0.356 N 
HETATM    3  C   LIG     1      17.466  37.263  25.420  1.00  0.00     0.219 A 
HETATM    4  C   LIG     1      18.019  36.545  26.584  1.00  0.00     0.104 A 
HETATM    5  C   LIG     1      18.002  35.073  26.136  1.00  0.00     0.029 A 
HETATM    6  C   LIG     1      17.426  35.029  24.705  1.00  0.00     0.125 A 
HETATM    7  O   LIG     1      17.309  38.513  25.375  1.00  0.00    -0.273 OA
ENDROOT
TORSDOF 0
ENDMDL
MODEL 2
REMARK VINA RESULT:      -4.8      1.653      2.204
REMARK  0 active torsions:
REMARK  status: ('A' for Active; 'I' for Inactive)
ROOT
HETATM    1  C   LIG     1      16.690  37.733  23.705  1.00  0.00     0.152 C 
HETATM    2  N   LIG     1      17.256  36.913  24.769  1.00  0.00    -0.356 N 
HETATM    3  C   LIG     1      17.382  35.507  24.729  1.00  0.00     0.219 A 
HETATM    4  C   LIG     1      17.994  34.948  25.950  1.00  0.00     0.104 A 
HETATM    5  C   LIG     1      18.261  36.192  26.816  1.00  0.00     0.029 A 
HETATM    6  C   LIG     1      17.775  37.424  26.024  1.00  0.00     0.125 A 
HETATM    7  O   LIG     1      17.007  34.810  23.749  1.00  0.00    -0.273 OA
ENDROOT
TORSDOF 0
ENDMDL
MODEL 3
REMARK VINA RESULT:      -4.4      4.099      5.544
REMARK  0 active torsions:
REMARK  status: ('A' for Active; 'I' for Inactive)
ROOT
HETATM    1  C   LIG     1      16.948  37.916  22.335  1.00  0.00     0.152 C 
HETATM    2  N   LIG     1      17.971  38.002  21.300  1.00  0.00    -0.356 N 
HETATM    3  C   LIG     1      18.212  37.019  20.315  1.00  0.00     0.219 A 
HETATM    4  C   LIG     1      19.311  37.379  19.399  1.00  0.00     0.104 A 
HETATM    5  C   LIG     1      19.771  38.753  19.916  1.00  0.00     0.029 A 
HETATM    6  C   LIG     1      18.889  39.112  21.130  1.00  0.00     0.125 A 
HETATM    7  O   LIG     1      17.553  35.948  20.235  1.00  0.00    -0.273 OA
ENDROOT
TORSDOF 0
ENDMDL
MODEL 4
REMARK VINA RESULT:      -4.3      4.421      5.308
REMARK  0 active torsions:
REMARK  status: ('A' for Active; 'I' for Inactive)
ROOT
HETATM    1  C   LIG     1      16.992  35.858  21.254  1.00  0.00     0.152 C 
HETATM    2  N   LIG     1      17.723  37.109  21.093  1.00  0.00    -0.356 N 
HETATM    3  C   LIG     1      18.685  37.362  20.091  1.00  0.00     0.219 A 
HETATM    4  C   LIG     1      19.261  38.718  20.175  1.00  0.00     0.104 A 
HETATM    5  C   LIG     1      18.541  39.337  21.385  1.00  0.00     0.029 A 
HETATM    6  C   LIG     1      17.568  38.276  21.941  1.00  0.00     0.125 A 
HETATM    7  O   LIG     1      19.012  36.512  19.220  1.00  0.00    -0.273 OA
ENDROOT
TORSDOF 0
ENDMDL
MODEL 5
REMARK VINA RESULT:      -4.3      4.189      4.992
REMARK  0 active torsions:
REMARK  status: ('A' for Active; 'I' for Inactive)
ROOT
HETATM    1  C   LIG     1      19.127  39.234  20.462  1.00  0.00     0.152 C 
HETATM    2  N   LIG     1      18.298  38.128  20.925  1.00  0.00    -0.356 N 
HETATM    3  C   LIG     1      18.229  36.857  20.314  1.00  0.00     0.219 A 
HETATM    4  C   LIG     1      17.305  35.936  21.004  1.00  0.00     0.104 A 
HETATM    5  C   LIG     1      16.765  36.781  22.171  1.00  0.00     0.029 A 
HETATM    6  C   LIG     1      17.425  38.173  22.083  1.00  0.00     0.125 A 
HETATM    7  O   LIG     1      18.890  36.549  19.286  1.00  0.00    -0.273 OA
ENDROOT
TORSDOF 0
ENDMDL
MODEL 6
REMARK VINA RESULT:      -4.2      2.647      3.662
REMARK  0 active torsions:
REMARK  status: ('A' for Active; 'I' for Inactive)
ROOT
HETATM    1  C   LIG     1      16.734  35.411  22.648  1.00  0.00     0.152 C 
HETATM    2  N   LIG     1      17.062  36.801  22.355  1.00  0.00    -0.356 N 
HETATM    3  C   LIG     1      16.695  37.905  23.154  1.00  0.00     0.219 A 
HETATM    4  C   LIG     1      17.165  39.193  22.609  1.00  0.00     0.104 A 
HETATM    5  C   LIG     1      17.905  38.786  21.322  1.00  0.00     0.029 A 
HETATM    6  C   LIG     1      17.814  37.250  21.199  1.00  0.00     0.125 A 
HETATM    7  O   LIG     1      16.032  37.794  24.221  1.00  0.00    -0.273 OA
ENDROOT
TORSDOF 0
ENDMDL
MODEL 7
REMARK VINA RESULT:      -4.2      1.363      2.797
REMARK  0 active torsions:
REMARK  status: ('A' for Active; 'I' for Inactive)
ROOT
HETATM    1  C   LIG     1      17.502  37.466  25.712  1.00  0.00     0.152 C 
HETATM    2  N   LIG     1      17.167  36.849  24.435  1.00  0.00    -0.356 N 
HETATM    3  C   LIG     1      16.711  37.544  23.294  1.00  0.00     0.219 A 
HETATM    4  C   LIG     1      16.452  36.657  22.144  1.00  0.00     0.104 A 
HETATM    5  C   LIG     1      16.805  35.260  22.685  1.00  0.00     0.029 A 
HETATM    6  C   LIG     1      17.256  35.429  24.150  1.00  0.00     0.125 A 
HETATM    7  O   LIG     1      16.543  38.793  23.269  1.00  0.00    -0.273 OA
ENDROOT
TORSDOF 0
ENDMDL
MODEL 8
REMARK VINA RESULT:      -4.2      4.412      5.065
REMARK  0 active torsions:
REMARK  status: ('A' for Active; 'I' for Inactive)
ROOT
HETATM    1  C   LIG     1      18.966  36.801  19.292  1.00  0.00     0.152 C 
HETATM    2  N   LIG     1      18.574  37.659  20.403  1.00  0.00    -0.356 N 
HETATM    3  C   LIG     1      19.089  38.950  20.650  1.00  0.00     0.219 A 
HETATM    4  C   LIG     1      18.505  39.584  21.849  1.00  0.00     0.104 A 
HETATM    5  C   LIG     1      17.520  38.522  22.368  1.00  0.00     0.029 A 
HETATM    6  C   LIG     1      17.595  37.311  21.416  1.00  0.00     0.125 A 
HETATM    7  O   LIG     1      19.957  39.498  19.920  1.00  0.00    -0.273 OA
ENDROOT
TORSDOF 0
ENDMDL
MODEL 9
REMARK VINA RESULT:      -4.0      3.926      4.750
REMARK  0 active torsions:
REMARK  status: ('A' for Active; 'I' for Inactive)
ROOT
HETATM    1  C   LIG     1      19.087  37.043  19.500  1.00  0.00     0.152 C 
HETATM    2  N   LIG     1      18.303  37.543  20.622  1.00  0.00    -0.356 N 
HETATM    3  C   LIG     1      17.350  36.791  21.343  1.00  0.00     0.219 A 
HETATM    4  C   LIG     1      16.711  37.560  22.429  1.00  0.00     0.104 A 
HETATM    5  C   LIG     1      17.381  38.942  22.328  1.00  0.00     0.029 A 
HETATM    6  C   LIG     1      18.389  38.887  21.162  1.00  0.00     0.125 A 
HETATM    7  O   LIG     1      17.078  35.589  21.080  1.00  0.00    -0.273 OA
ENDROOT
TORSDOF 0
ENDMDL
MODEL 10
REMARK VINA RESULT:      -4.0     10.405     11.674
REMARK  0 active torsions:
REMARK  status: ('A' for Active; 'I' for Inactive)
ROOT
HETATM    1  C   LIG     1      14.763  32.687  17.075  1.00  0.00     0.152 C 
HETATM    2  N   LIG     1      14.682  31.719  15.988  1.00  0.00    -0.356 N 
HETATM    3  C   LIG     1      13.683  30.730  15.858  1.00  0.00     0.219 A 
HETATM    4  C   LIG     1      13.857  29.891  14.656  1.00  0.00     0.104 A 
HETATM    5  C   LIG     1      15.124  30.467  13.999  1.00  0.00     0.029 A 
HETATM    6  C   LIG     1      15.617  31.632  14.882  1.00  0.00     0.125 A 
HETATM    7  O   LIG     1      12.745  30.584  16.686  1.00  0.00    -0.273 OA
ENDROOT
TORSDOF 0
ENDMDL
MODEL 11
REMARK VINA RESULT:      -3.9      1.867      2.580
REMARK  0 active torsions:
REMARK  status: ('A' for Active; 'I' for Inactive)
ROOT
HETATM    1  C   LIG     1      16.314  36.463  21.972  1.00  0.00     0.152 C 
HETATM    2  N   LIG     1      16.768  36.979  23.258  1.00  0.00    -0.356 N 
HETATM    3  C   LIG     1      17.143  36.183  24.362  1.00  0.00     0.219 A 
HETATM    4  C   LIG     1      17.560  36.981  25.531  1.00  0.00     0.104 A 
HETATM    5  C   LIG     1      17.409  38.433  25.044  1.00  0.00     0.029 A 
HETATM    6  C   LIG     1      16.902  38.385  23.588  1.00  0.00     0.125 A 
HETATM    7  O   LIG     1      17.119  34.923  24.344  1.00  0.00    -0.273 OA
ENDROOT
TORSDOF 0
ENDMDL
MODEL 12
REMARK VINA RESULT:      -3.9     11.075     11.924
REMARK  0 active torsions:
REMARK  status: ('A' for Active; 'I' for Inactive)
ROOT
HETATM    1  C   LIG     1      16.576  32.612  15.286  1.00  0.00     0.152 C 
HETATM    2  N   LIG     1      15.403  31.749  15.350  1.00  0.00    -0.356 N 
HETATM    3  C   LIG     1      15.089  30.738  14.416  1.00  0.00     0.219 A 
HETATM    4  C   LIG     1      13.837  30.026  14.738  1.00  0.00     0.104 A 
HETATM    5  C   LIG     1      13.358  30.711  16.029  1.00  0.00     0.029 A 
HETATM    6  C   LIG     1      14.387  31.805  16.385  1.00  0.00     0.125 A 
HETATM    7  O   LIG     1      15.808  30.478  13.414  1.00  0.00    -0.273 OA
ENDROOT
TORSDOF 0
ENDMDL
MODEL 13
REMARK VINA RESULT:      -3.8      9.857     10.568
REMARK  0 active torsions:
REMARK  status: ('A' for Active; 'I' for Inactive)
ROOT
HETATM    1  C   LIG     1      16.357  32.273  14.445  1.00  0.00     0.152 C 
HETATM    2  N   LIG     1      15.287  31.900  15.362  1.00  0.00    -0.356 N 
HETATM    3  C   LIG     1      14.965  32.585  16.554  1.00  0.00     0.219 A 
HETATM    4  C   LIG     1      13.833  31.978  17.280  1.00  0.00     0.104 A 
HETATM    5  C   LIG     1      13.442  30.781  16.394  1.00  0.00     0.029 A 
HETATM    6  C   LIG     1      14.396  30.769  15.181  1.00  0.00     0.125 A 
HETATM    7  O   LIG     1      15.587  33.607  16.950  1.00  0.00    -0.273 OA
ENDROOT
TORSDOF 0
ENDMDL
MODEL 14
REMARK VINA RESULT:      -3.8     10.277     11.207
REMARK  0 active torsions:
REMARK  status: ('A' for Active; 'I' for Inactive)
ROOT
HETATM    1  C   LIG     1      14.188  29.727  14.360  1.00  0.00     0.152 C 
HETATM    2  N   LIG     1      14.499  30.835  15.255  1.00  0.00    -0.356 N 
HETATM    3  C   LIG     1      13.776  31.161  16.422  1.00  0.00     0.219 A 
HETATM    4  C   LIG     1      14.323  32.335  17.130  1.00  0.00     0.104 A 
HETATM    5  C   LIG     1      15.523  32.748  16.260  1.00  0.00     0.029 A 
HETATM    6  C   LIG     1      15.599  31.764  15.074  1.00  0.00     0.125 A 
HETATM    7  O   LIG     1      12.769  30.513  16.813  1.00  0.00    -0.273 OA
ENDROOT
TORSDOF 0
ENDMDL
MODEL 15
REMARK VINA RESULT:      -3.7      9.552     10.834
REMARK  0 active torsions:
REMARK  status: ('A' for Active; 'I' for Inactive)
ROOT
HETATM    1  C   LIG     1      14.986  32.859  17.853  1.00  0.00     0.152 C 
HETATM    2  N   LIG     1      14.931  32.078  16.624  1.00  0.00    -0.356 N 
HETATM    3  C   LIG     1      15.851  32.178  15.558  1.00  0.00     0.219 A 
HETATM    4  C   LIG     1      15.543  31.262  14.443  1.00  0.00     0.104 A 
HETATM    5  C   LIG     1      14.276  30.531  14.921  1.00  0.00     0.029 A 
HETATM    6  C   LIG     1      13.920  31.082  16.318  1.00  0.00     0.125 A 
HETATM    7  O   LIG     1      16.831  32.970  15.566  1.00  0.00    -0.273 OA
ENDROOT
TORSDOF 0
ENDMDL
MODEL 16
REMARK VINA RESULT:      -3.7     10.566     11.507
REMARK  0 active torsions:
REMARK  status: ('A' for Active; 'I' for Inactive)
ROOT
HETATM    1  C   LIG     1      14.227  29.575  14.226  1.00  0.00     0.152 C 
HETATM    2  N   LIG     1      14.545  30.695  15.103  1.00  0.00    -0.356 N 
HETATM    3  C   LIG     1      15.588  31.621  14.887  1.00  0.00     0.219 A 
HETATM    4  C   LIG     1      15.673  32.650  15.941  1.00  0.00     0.104 A 
HETATM    5  C   LIG     1      14.528  32.274  16.898  1.00  0.00     0.029 A 
HETATM    6  C   LIG     1      13.834  31.021  16.325  1.00  0.00     0.125 A 
HETATM    7  O   LIG     1      16.363  31.568  13.894  1.00  0.00    -0.273 OA
ENDROOT
TORSDOF 0
ENDMDL
MODEL 17
REMARK VINA RESULT:      -3.6     11.683     12.552
REMARK  0 active torsions:
REMARK  status: ('A' for Active; 'I' for Inactive)
ROOT
HETATM    1  C   LIG     1      12.911  30.812  16.484  1.00  0.00     0.152 C 
HETATM    2  N   LIG     1      13.989  30.851  15.504  1.00  0.00    -0.356 N 
HETATM    3  C   LIG     1      14.129  29.959  14.418  1.00  0.00     0.219 A 
HETATM    4  C   LIG     1      15.319  30.241  13.592  1.00  0.00     0.104 A 
HETATM    5  C   LIG     1      15.956  31.457  14.287  1.00  0.00     0.029 A 
HETATM    6  C   LIG     1      15.075  31.813  15.502  1.00  0.00     0.125 A 
HETATM    7  O   LIG     1      13.319  29.022  14.187  1.00  0.00    -0.273 OA
ENDROOT
TORSDOF 0
ENDMDL
MODEL 18
REMARK VINA RESULT:      -3.5     10.850     11.584
REMARK  0 active torsions:
REMARK  status: ('A' for Active; 'I' for Inactive)
ROOT
HETATM    1  C   LIG     1      17.450  33.318  13.142  1.00  0.00     0.152 C 
HETATM    2  N   LIG     1      16.486  32.500  13.868  1.00  0.00    -0.356 N 
HETATM    3  C   LIG     1      15.983  32.792  15.155  1.00  0.00     0.219 A 
HETATM    4  C   LIG     1      15.021  31.784  15.639  1.00  0.00     0.104 A 
HETATM    5  C   LIG     1      14.953  30.772  14.482  1.00  0.00     0.029 A 
HETATM    6  C   LIG     1      15.904  31.267  13.373  1.00  0.00     0.125 A 
HETATM    7  O   LIG     1      16.327  33.809  15.815  1.00  0.00    -0.273 OA
ENDROOT
TORSDOF 0
ENDMDL
MODEL 19
REMARK VINA RESULT:      -3.5     10.508     11.385
REMARK  0 active torsions:
REMARK  status: ('A' for Active; 'I' for Inactive)
ROOT
HETATM    1  C   LIG     1      14.477  30.791  15.170  1.00  0.00     0.152 C 
HETATM    2  N   LIG     1      15.519  31.710  14.729  1.00  0.00    -0.356 N 
HETATM    3  C   LIG     1      16.239  32.583  15.573  1.00  0.00     0.219 A 
HETATM    4  C   LIG     1      17.234  33.396  14.848  1.00  0.00     0.104 A 
HETATM    5  C   LIG     1      17.074  32.936  13.388  1.00  0.00     0.029 A 
HETATM    6  C   LIG     1      15.969  31.859  13.358  1.00  0.00     0.125 A 
HETATM    7  O   LIG     1      16.045  32.656  16.816  1.00  0.00    -0.273 OA
ENDROOT
TORSDOF 0
ENDMDL
MODEL 20
REMARK VINA RESULT:      -3.3     12.570     13.950
REMARK  0 active torsions:
REMARK  status: ('A' for Active; 'I' for Inactive)
ROOT
HETATM    1  C   LIG     1      18.119  33.530  13.614  1.00  0.00     0.152 C 
HETATM    2  N   LIG     1      18.591  33.847  12.271  1.00  0.00    -0.356 N 
HETATM    3  C   LIG     1      18.101  34.900  11.468  1.00  0.00     0.219 A 
HETATM    4  C   LIG     1      18.768  34.980  10.154  1.00  0.00     0.104 A 
HETATM    5  C   LIG     1      19.780  33.821  10.197  1.00  0.00     0.029 A 
HETATM    6  C   LIG     1      19.633  33.125  11.566  1.00  0.00     0.125 A 
HETATM    7  O   LIG     1      17.189  35.685  11.841  1.00  0.00    -0.273 OA
ENDROOT
TORSDOF 0
ENDMDL
