REMARK  0 active torsions:
REMARK  status: ('A' for Active; 'I' for Inactive)
ROOT
HETATM    1  C   LIG     1       2.126   0.049  -0.576  1.00  0.00     0.152 C 
HETATM    2  N   LIG     1       0.717   0.046  -0.202  1.00  0.00    -0.356 N 
HETATM    3  C   LIG     1      -0.145   1.161  -0.284  1.00  0.00     0.219 A 
HETATM    4  C   LIG     1      -1.519   0.861   0.163  1.00  0.00     0.104 A 
HETATM    5  C   LIG     1      -1.449  -0.625   0.557  1.00  0.00     0.029 A 
HETATM    6  C   LIG     1      -0.004  -1.105   0.308  1.00  0.00     0.125 A 
HETATM    7  O   LIG     1       0.228   2.292  -0.696  1.00  0.00    -0.273 OA
ENDROOT
TORSDOF 0
