REMARK  1 active torsions:
REMARK  status: ('A' for Active; 'I' for Inactive)
REMARK    1  A    between atoms: C_2  and  C_3 
ROOT
HETATM    1  C   LIG     1       0.093  -0.291  -0.137  1.00  0.00    -0.018 A 
HETATM    2  C   LIG     1       1.115   0.325  -0.848  1.00  0.00     0.015 A 
HETATM    3  C   LIG     1       2.366   0.203  -0.232  1.00  0.00     0.008 A 
HETATM    4  C   LIG     1       2.334  -0.510   0.960  1.00  0.00     0.050 A 
HETATM    5  S   LIG     1       0.748  -0.990   1.247  1.00  0.00    -0.106 SA
ENDROOT
BRANCH   1   6
HETATM    6  C   LIG     1      -1.348  -0.351  -0.542  1.00  0.00     0.041 C 
HETATM    7  C   LIG     1      -2.227   0.404   0.450  1.00  0.00     0.010 C 
ENDBRANCH   1   6
TORSDOF 1
