MODEL 1
REMARK VINA RESULT:      -5.0      0.000      0.000
REMARK  1 active torsions:
REMARK  status: ('A' for Active; 'I' for Inactive)
REMARK    1  A    between atoms: C_2  and  C_3 
ROOT
HETATM    1  C   LIG     1      17.311  36.178  24.379  1.00  0.00    -0.018 A 
HETATM    2  C   LIG     1      17.446  34.930  24.974  1.00  0.00     0.015 A 
HETATM    3  C   LIG     1      17.958  34.993  26.275  1.00  0.00     0.008 A 
HETATM    4  C   LIG     1      18.224  36.285  26.709  1.00  0.00     0.050 A 
HETATM    5  S   LIG     1      17.821  37.352  25.472  1.00  0.00    -0.106 SA
ENDROOT
BRANCH   1   6
HETATM    6  C   LIG     1      16.777  36.444  23.004  1.00  0.00     0.041 C 
HETATM    7  C   LIG     1      16.902  35.208  22.120  1.00  0.00     0.010 C 
ENDBRANCH   1   6
TORSDOF 1
ENDMDL
MODEL 2
REMARK VINA RESULT:      -4.9      0.915      3.334
REMARK  1 active torsions:
REMARK  status: ('A' for Active; 'I' for Inactive)
REMARK    1  A    between atoms: C_2  and  C_3 
ROOT
HETATM    1  C   LIG     1      17.197  35.766  24.478  1.00  0.00    -0.018 A 
HETATM    2  C   LIG     1      17.053  35.210  23.213  1.00  0.00     0.015 A 
HETATM    3  C   LIG     1      16.772  36.159  22.223  1.00  0.00     0.008 A 
HETATM    4  C   LIG     1      16.698  37.461  22.703  1.00  0.00     0.050 A 
HETATM    5  S   LIG     1      16.983  37.431  24.360  1.00  0.00    -0.106 SA
ENDROOT
BRANCH   1   6
HETATM    6  C   LIG     1      17.517  35.018  25.736  1.00  0.00     0.041 C 
HETATM    7  C   LIG     1      18.358  35.870  26.680  1.00  0.00     0.010 C 
ENDBRANCH   1   6
TORSDOF 1
ENDMDL
MODEL 3
REMARK VINA RESULT:      -4.8      1.679      2.105
REMARK  1 active torsions:
REMARK  status: ('A' for Active; 'I' for Inactive)
REMARK    1  A    between atoms: C_2  and  C_3 
ROOT
HETATM    1  C   LIG     1      17.245  36.756  24.864  1.00  0.00    -0.018 A 
HETATM    2  C   LIG     1      17.940  37.193  25.984  1.00  0.00     0.015 A 
HETATM    3  C   LIG     1      18.439  36.145  26.767  1.00  0.00     0.008 A 
HETATM    4  C   LIG     1      18.142  34.884  26.265  1.00  0.00     0.050 A 
HETATM    5  S   LIG     1      17.259  35.073  24.847  1.00  0.00    -0.106 SA
ENDROOT
BRANCH   1   6
HETATM    6  C   LIG     1      16.609  37.631  23.827  1.00  0.00     0.041 C 
HETATM    7  C   LIG     1      17.659  38.458  23.092  1.00  0.00     0.010 C 
ENDBRANCH   1   6
TORSDOF 1
ENDMDL
MODEL 4
REMARK VINA RESULT:      -4.6      3.441      5.058
REMARK  1 active torsions:
REMARK  status: ('A' for Active; 'I' for Inactive)
REMARK    1  A    between atoms: C_2  and  C_3 
ROOT
HETATM    1  C   LIG     1      17.998  36.949  20.557  1.00  0.00    -0.018 A 
HETATM    2  C   LIG     1      18.986  36.998  19.582  1.00  0.00     0.015 A 
HETATM    3  C   LIG     1      19.707  38.198  19.588  1.00  0.00     0.008 A 
HETATM    4  C   LIG     1      19.295  39.092  20.568  1.00  0.00     0.050 A 
HETATM    5  S   LIG     1      18.031  38.390  21.427  1.00  0.00    -0.106 SA
ENDROOT
BRANCH   1   6
HETATM    6  C   LIG     1      17.073  35.800  20.816  1.00  0.00     0.041 C 
HETATM    7  C   LIG     1      17.011  35.472  22.304  1.00  0.00     0.010 C 
ENDBRANCH   1   6
TORSDOF 1
ENDMDL
MODEL 5
REMARK VINA RESULT:      -4.6      1.504      3.595
REMARK  1 active torsions:
REMARK  status: ('A' for Active; 'I' for Inactive)
REMARK    1  A    between atoms: C_2  and  C_3 
ROOT
HETATM    1  C   LIG     1      17.614  36.902  25.003  1.00  0.00    -0.018 A 
HETATM    2  C   LIG     1      17.536  38.232  24.613  1.00  0.00     0.015 A 
HETATM    3  C   LIG     1      17.008  38.399  23.327  1.00  0.00     0.008 A 
HETATM    4  C   LIG     1      16.667  37.205  22.705  1.00  0.00     0.050 A 
HETATM    5  S   LIG     1      17.021  35.941  23.755  1.00  0.00    -0.106 SA
ENDROOT
BRANCH   1   6
HETATM    6  C   LIG     1      18.115  36.401  26.323  1.00  0.00     0.041 C 
HETATM    7  C   LIG     1      18.255  34.882  26.314  1.00  0.00     0.010 C 
ENDBRANCH   1   6
TORSDOF 1
ENDMDL
MODEL 6
REMARK VINA RESULT:      -4.5      3.435      4.781
REMARK  1 active torsions:
REMARK  status: ('A' for Active; 'I' for Inactive)
REMARK    1  A    between atoms: C_2  and  C_3 
ROOT
HETATM    1  C   LIG     1      18.322  38.143  20.921  1.00  0.00    -0.018 A 
HETATM    2  C   LIG     1      18.244  36.889  20.329  1.00  0.00     0.015 A 
HETATM    3  C   LIG     1      17.324  36.040  20.954  1.00  0.00     0.008 A 
HETATM    4  C   LIG     1      16.673  36.622  22.035  1.00  0.00     0.050 A 
HETATM    5  S   LIG     1      17.243  38.195  22.212  1.00  0.00    -0.106 SA
ENDROOT
BRANCH   1   6
HETATM    6  C   LIG     1      19.197  39.274  20.474  1.00  0.00     0.041 C 
HETATM    7  C   LIG     1      20.254  38.791  19.486  1.00  0.00     0.010 C 
ENDBRANCH   1   6
TORSDOF 1
ENDMDL
MODEL 7
REMARK VINA RESULT:      -4.5      3.625      4.867
REMARK  1 active torsions:
REMARK  status: ('A' for Active; 'I' for Inactive)
REMARK    1  A    between atoms: C_2  and  C_3 
ROOT
HETATM    1  C   LIG     1      18.285  37.721  20.690  1.00  0.00    -0.018 A 
HETATM    2  C   LIG     1      18.066  38.896  21.398  1.00  0.00     0.015 A 
HETATM    3  C   LIG     1      17.090  38.766  22.393  1.00  0.00     0.008 A 
HETATM    4  C   LIG     1      16.540  37.493  22.473  1.00  0.00     0.050 A 
HETATM    5  S   LIG     1      17.271  36.527  21.307  1.00  0.00    -0.106 SA
ENDROOT
BRANCH   1   6
HETATM    6  C   LIG     1      19.274  37.533  19.581  1.00  0.00     0.041 C 
HETATM    7  C   LIG     1      20.245  38.708  19.509  1.00  0.00     0.010 C 
ENDBRANCH   1   6
TORSDOF 1
ENDMDL
MODEL 8
REMARK VINA RESULT:      -4.5      3.539      4.928
REMARK  1 active torsions:
REMARK  status: ('A' for Active; 'I' for Inactive)
REMARK    1  A    between atoms: C_2  and  C_3 
ROOT
HETATM    1  C   LIG     1      17.858  37.023  20.797  1.00  0.00    -0.018 A 
HETATM    2  C   LIG     1      17.755  38.129  21.631  1.00  0.00     0.015 A 
HETATM    3  C   LIG     1      18.620  39.170  21.274  1.00  0.00     0.008 A 
HETATM    4  C   LIG     1      19.401  38.890  20.160  1.00  0.00     0.050 A 
HETATM    5  S   LIG     1      19.015  37.345  19.618  1.00  0.00    -0.106 SA
ENDROOT
BRANCH   1   6
HETATM    6  C   LIG     1      17.057  35.762  20.907  1.00  0.00     0.041 C 
HETATM    7  C   LIG     1      16.957  35.301  22.358  1.00  0.00     0.010 C 
ENDBRANCH   1   6
TORSDOF 1
ENDMDL
MODEL 9
REMARK VINA RESULT:      -4.2      2.777      4.440
REMARK  1 active torsions:
REMARK  status: ('A' for Active; 'I' for Inactive)
REMARK    1  A    between atoms: C_2  and  C_3 
ROOT
HETATM    1  C   LIG     1      17.217  37.729  22.317  1.00  0.00    -0.018 A 
HETATM    2  C   LIG     1      17.307  36.624  21.481  1.00  0.00     0.015 A 
HETATM    3  C   LIG     1      18.158  36.828  20.388  1.00  0.00     0.008 A 
HETATM    4  C   LIG     1      18.742  38.088  20.363  1.00  0.00     0.050 A 
HETATM    5  S   LIG     1      18.200  38.949  21.702  1.00  0.00    -0.106 SA
ENDROOT
BRANCH   1   6
HETATM    6  C   LIG     1      16.405  37.818  23.573  1.00  0.00     0.041 C 
HETATM    7  C   LIG     1      17.303  38.004  24.793  1.00  0.00     0.010 C 
ENDBRANCH   1   6
TORSDOF 1
ENDMDL
MODEL 10
REMARK VINA RESULT:      -4.2      2.091      2.702
REMARK  1 active torsions:
REMARK  status: ('A' for Active; 'I' for Inactive)
REMARK    1  A    between atoms: C_2  and  C_3 
ROOT
HETATM    1  C   LIG     1      16.947  36.430  23.104  1.00  0.00    -0.018 A 
HETATM    2  C   LIG     1      16.974  37.702  22.545  1.00  0.00     0.015 A 
HETATM    3  C   LIG     1      17.253  38.708  23.478  1.00  0.00     0.008 A 
HETATM    4  C   LIG     1      17.449  38.233  24.769  1.00  0.00     0.050 A 
HETATM    5  S   LIG     1      17.276  36.561  24.749  1.00  0.00    -0.106 SA
ENDROOT
BRANCH   1   6
HETATM    6  C   LIG     1      16.695  35.151  22.367  1.00  0.00     0.041 C 
HETATM    7  C   LIG     1      16.669  35.384  20.859  1.00  0.00     0.010 C 
ENDBRANCH   1   6
TORSDOF 1
ENDMDL
MODEL 11
REMARK VINA RESULT:      -4.1      9.150     10.849
REMARK  1 active torsions:
REMARK  status: ('A' for Active; 'I' for Inactive)
REMARK    1  A    between atoms: C_2  and  C_3 
ROOT
HETATM    1  C   LIG     1      14.895  31.116  15.069  1.00  0.00    -0.018 A 
HETATM    2  C   LIG     1      13.795  30.770  15.843  1.00  0.00     0.015 A 
HETATM    3  C   LIG     1      13.631  31.588  16.966  1.00  0.00     0.008 A 
HETATM    4  C   LIG     1      14.596  32.582  17.079  1.00  0.00     0.050 A 
HETATM    5  S   LIG     1      15.653  32.441  15.778  1.00  0.00    -0.106 SA
ENDROOT
BRANCH   1   6
HETATM    6  C   LIG     1      15.325  30.446  13.801  1.00  0.00     0.041 C 
HETATM    7  C   LIG     1      15.203  28.930  13.915  1.00  0.00     0.010 C 
ENDBRANCH   1   6
TORSDOF 1
ENDMDL
MODEL 12
REMARK VINA RESULT:      -3.9      8.926     11.058
REMARK  1 active torsions:
REMARK  status: ('A' for Active; 'I' for Inactive)
REMARK    1  A    between atoms: C_2  and  C_3 
ROOT
HETATM    1  C   LIG     1      14.907  31.769  15.718  1.00  0.00    -0.018 A 
HETATM    2  C   LIG     1      14.084  30.663  15.551  1.00  0.00     0.015 A 
HETATM    3  C   LIG     1      14.320  29.976  14.355  1.00  0.00     0.008 A 
HETATM    4  C   LIG     1      15.329  30.535  13.580  1.00  0.00     0.050 A 
HETATM    5  S   LIG     1      15.929  31.884  14.386  1.00  0.00    -0.106 SA
ENDROOT
BRANCH   1   6
HETATM    6  C   LIG     1      14.910  32.693  16.897  1.00  0.00     0.041 C 
HETATM    7  C   LIG     1      14.492  31.960  18.168  1.00  0.00     0.010 C 
ENDBRANCH   1   6
TORSDOF 1
ENDMDL
MODEL 13
REMARK VINA RESULT:      -3.8      9.284     10.289
REMARK  1 active torsions:
REMARK  status: ('A' for Active; 'I' for Inactive)
REMARK    1  A    between atoms: C_2  and  C_3 
ROOT
HETATM    1  C   LIG     1      15.317  31.934  15.307  1.00  0.00    -0.018 A 
HETATM    2  C   LIG     1      14.424  30.870  15.312  1.00  0.00     0.015 A 
HETATM    3  C   LIG     1      13.603  30.846  16.446  1.00  0.00     0.008 A 
HETATM    4  C   LIG     1      13.843  31.889  17.331  1.00  0.00     0.050 A 
HETATM    5  S   LIG     1      15.078  32.843  16.703  1.00  0.00    -0.106 SA
ENDROOT
BRANCH   1   6
HETATM    6  C   LIG     1      16.311  32.242  14.229  1.00  0.00     0.041 C 
HETATM    7  C   LIG     1      17.469  33.072  14.774  1.00  0.00     0.010 C 
ENDBRANCH   1   6
TORSDOF 1
ENDMDL
MODEL 14
REMARK VINA RESULT:      -3.7     10.369     11.245
REMARK  1 active torsions:
REMARK  status: ('A' for Active; 'I' for Inactive)
REMARK    1  A    between atoms: C_2  and  C_3 
ROOT
HETATM    1  C   LIG     1      15.260  31.391  14.717  1.00  0.00    -0.018 A 
HETATM    2  C   LIG     1      15.837  31.653  13.481  1.00  0.00     0.015 A 
HETATM    3  C   LIG     1      16.787  32.679  13.523  1.00  0.00     0.008 A 
HETATM    4  C   LIG     1      16.964  33.225  14.788  1.00  0.00     0.050 A 
HETATM    5  S   LIG     1      15.938  32.429  15.856  1.00  0.00    -0.106 SA
ENDROOT
BRANCH   1   6
HETATM    6  C   LIG     1      14.227  30.344  15.002  1.00  0.00     0.041 C 
HETATM    7  C   LIG     1      13.269  30.804  16.097  1.00  0.00     0.010 C 
ENDBRANCH   1   6
TORSDOF 1
ENDMDL
MODEL 15
REMARK VINA RESULT:      -3.5      3.134      4.097
REMARK  1 active torsions:
REMARK  status: ('A' for Active; 'I' for Inactive)
REMARK    1  A    between atoms: C_2  and  C_3 
ROOT
HETATM    1  C   LIG     1      17.247  37.049  21.709  1.00  0.00    -0.018 A 
HETATM    2  C   LIG     1      16.917  36.346  22.861  1.00  0.00     0.015 A 
HETATM    3  C   LIG     1      16.516  35.029  22.607  1.00  0.00     0.008 A 
HETATM    4  C   LIG     1      16.534  34.691  21.259  1.00  0.00     0.050 A 
HETATM    5  S   LIG     1      17.048  36.031  20.384  1.00  0.00    -0.106 SA
ENDROOT
BRANCH   1   6
HETATM    6  C   LIG     1      17.726  38.467  21.651  1.00  0.00     0.041 C 
HETATM    7  C   LIG     1      17.168  39.281  22.814  1.00  0.00     0.010 C 
ENDBRANCH   1   6
TORSDOF 1
ENDMDL
MODEL 16
REMARK VINA RESULT:      -3.1     15.199     16.268
REMARK  1 active torsions:
REMARK  status: ('A' for Active; 'I' for Inactive)
REMARK    1  A    between atoms: C_2  and  C_3 
ROOT
HETATM    1  C   LIG     1      26.392  30.708  36.920  1.00  0.00    -0.018 A 
HETATM    2  C   LIG     1      26.051  30.845  35.580  1.00  0.00     0.015 A 
HETATM    3  C   LIG     1      26.355  29.713  34.815  1.00  0.00     0.008 A 
HETATM    4  C   LIG     1      26.932  28.683  35.548  1.00  0.00     0.050 A 
HETATM    5  S   LIG     1      27.062  29.181  37.149  1.00  0.00    -0.106 SA
ENDROOT
BRANCH   1   6
HETATM    6  C   LIG     1      26.178  31.733  37.991  1.00  0.00     0.041 C 
HETATM    7  C   LIG     1      27.394  32.643  38.129  1.00  0.00     0.010 C 
ENDBRANCH   1   6
TORSDOF 1
ENDMDL
MODEL 17
REMARK VINA RESULT:      -3.1     19.189     20.247
REMARK  1 active torsions:
REMARK  status: ('A' for Active; 'I' for Inactive)
REMARK    1  A    between atoms: C_2  and  C_3 
ROOT
HETATM    1  C   LIG     1      14.420  18.375  14.430  1.00  0.00    -0.018 A 
HETATM    2  C   LIG     1      14.152  18.389  15.793  1.00  0.00     0.015 A 
HETATM    3  C   LIG     1      15.218  18.873  16.559  1.00  0.00     0.008 A 
HETATM    4  C   LIG     1      16.324  19.244  15.805  1.00  0.00     0.050 A 
HETATM    5  S   LIG     1      15.974  18.971  14.183  1.00  0.00    -0.106 SA
ENDROOT
BRANCH   1   6
HETATM    6  C   LIG     1      13.478  17.933  13.352  1.00  0.00     0.041 C 
HETATM    7  C   LIG     1      12.027  18.074  13.802  1.00  0.00     0.010 C 
ENDBRANCH   1   6
TORSDOF 1
ENDMDL
MODEL 18
REMARK VINA RESULT:      -2.9     16.331     17.642
REMARK  1 active torsions:
REMARK  status: ('A' for Active; 'I' for Inactive)
REMARK    1  A    between atoms: C_2  and  C_3 
ROOT
HETATM    1  C   LIG     1      20.573  22.755  35.681  1.00  0.00    -0.018 A 
HETATM    2  C   LIG     1      21.211  23.833  36.281  1.00  0.00     0.015 A 
HETATM    3  C   LIG     1      22.280  23.454  37.100  1.00  0.00     0.008 A 
HETATM    4  C   LIG     1      22.489  22.082  37.146  1.00  0.00     0.050 A 
HETATM    5  S   LIG     1      21.343  21.339  36.164  1.00  0.00    -0.106 SA
ENDROOT
BRANCH   1   6
HETATM    6  C   LIG     1      19.410  22.834  34.739  1.00  0.00     0.041 C 
HETATM    7  C   LIG     1      19.884  22.948  33.294  1.00  0.00     0.010 C 
ENDBRANCH   1   6
TORSDOF 1
ENDMDL
MODEL 19
REMARK VINA RESULT:      -2.8     18.956     19.865
REMARK  1 active torsions:
REMARK  status: ('A' for Active; 'I' for Inactive)
REMARK    1  A    between atoms: C_2  and  C_3 
ROOT
HETATM    1  C   LIG     1      15.813  18.877  14.170  1.00  0.00    -0.018 A 
HETATM    2  C   LIG     1      14.595  18.269  14.447  1.00  0.00     0.015 A 
HETATM    3  C   LIG     1      14.233  18.350  15.797  1.00  0.00     0.008 A 
HETATM    4  C   LIG     1      15.159  19.024  16.584  1.00  0.00     0.050 A 
HETATM    5  S   LIG     1      16.429  19.519  15.599  1.00  0.00    -0.106 SA
ENDROOT
BRANCH   1   6
HETATM    6  C   LIG     1      16.462  18.973  12.824  1.00  0.00     0.041 C 
HETATM    7  C   LIG     1      16.095  20.282  12.131  1.00  0.00     0.010 C 
ENDBRANCH   1   6
TORSDOF 1
ENDMDL
