MODEL 1
REMARK VINA RESULT:      -6.5      0.000      0.000
REMARK  1 active torsions:
REMARK  status: ('A' for Active; 'I' for Inactive)
REMARK    1  A    between atoms: C_6  and  O_7 
ROOT
HETATM    1 CL   LIG     1      18.408  36.686  19.263  1.00  0.00    -0.083 Cl
HETATM    2  C   LIG     1      17.909  37.223  20.872  1.00  0.00     0.046 A 
HETATM    3  C   LIG     1      18.275  38.507  21.334  1.00  0.00    -0.037 A 
HETATM    4  C   LIG     1      19.091  39.434  20.473  1.00  0.00     0.050 C 
HETATM    5  C   LIG     1      17.874  38.922  22.613  1.00  0.00     0.045 A 
HETATM    6  C   LIG     1      17.117  38.081  23.429  1.00  0.00     0.066 A 
HETATM    7  C   LIG     1      16.754  36.809  22.972  1.00  0.00     0.045 A 
HETATM    8  C   LIG     1      17.144  36.371  21.697  1.00  0.00    -0.037 A 
HETATM    9  C   LIG     1      16.742  35.000  21.227  1.00  0.00     0.050 C 
ENDROOT
BRANCH   6  10
HETATM   10  O   LIG     1      16.731  38.516  24.694  1.00  0.00    -0.361 OA
HETATM   11  H   LIG     1      16.609  39.500  24.903  1.00  0.00     0.217 HD
ENDBRANCH   6  10
TORSDOF 1
ENDMDL
MODEL 2
REMARK VINA RESULT:      -6.5      0.028      2.741
REMARK  1 active torsions:
REMARK  status: ('A' for Active; 'I' for Inactive)
REMARK    1  A    between atoms: C_6  and  O_7 
ROOT
HETATM    1 CL   LIG     1      18.422  36.701  19.252  1.00  0.00    -0.083 Cl
HETATM    2  C   LIG     1      17.913  37.230  20.861  1.00  0.00     0.046 A 
HETATM    3  C   LIG     1      17.141  36.371  21.675  1.00  0.00    -0.037 A 
HETATM    4  C   LIG     1      16.739  35.004  21.193  1.00  0.00     0.050 C 
HETATM    5  C   LIG     1      16.742  36.802  22.950  1.00  0.00     0.045 A 
HETATM    6  C   LIG     1      17.103  38.065  23.419  1.00  0.00     0.066 A 
HETATM    7  C   LIG     1      17.867  38.916  22.613  1.00  0.00     0.045 A 
HETATM    8  C   LIG     1      18.278  38.508  21.335  1.00  0.00    -0.037 A 
HETATM    9  C   LIG     1      19.100  39.439  20.486  1.00  0.00     0.050 C 
ENDROOT
BRANCH   6  10
HETATM   10  O   LIG     1      16.694  38.469  24.688  1.00  0.00    -0.361 OA
HETATM   11  H   LIG     1      15.997  37.953  25.210  1.00  0.00     0.217 HD
ENDBRANCH   6  10
TORSDOF 1
ENDMDL
MODEL 3
REMARK VINA RESULT:      -6.4      3.101      4.512
REMARK  1 active torsions:
REMARK  status: ('A' for Active; 'I' for Inactive)
REMARK    1  A    between atoms: C_6  and  O_7 
ROOT
HETATM    1 CL   LIG     1      17.420  38.152  25.622  1.00  0.00    -0.083 Cl
HETATM    2  C   LIG     1      17.160  37.100  24.225  1.00  0.00     0.046 A 
HETATM    3  C   LIG     1      17.212  35.697  24.378  1.00  0.00    -0.037 A 
HETATM    4  C   LIG     1      17.487  35.075  25.720  1.00  0.00     0.050 C 
HETATM    5  C   LIG     1      17.004  34.871  23.261  1.00  0.00     0.045 A 
HETATM    6  C   LIG     1      16.747  35.425  22.007  1.00  0.00     0.066 A 
HETATM    7  C   LIG     1      16.696  36.815  21.855  1.00  0.00     0.045 A 
HETATM    8  C   LIG     1      16.900  37.660  22.955  1.00  0.00    -0.037 A 
HETATM    9  C   LIG     1      16.840  39.152  22.769  1.00  0.00     0.050 C 
ENDROOT
BRANCH   6  10
HETATM   10  O   LIG     1      16.545  34.584  20.914  1.00  0.00    -0.361 OA
HETATM   11  H   LIG     1      15.615  34.380  20.567  1.00  0.00     0.217 HD
ENDBRANCH   6  10
TORSDOF 1
ENDMDL
MODEL 4
REMARK VINA RESULT:      -6.4      3.101      3.857
REMARK  1 active torsions:
REMARK  status: ('A' for Active; 'I' for Inactive)
REMARK    1  A    between atoms: C_6  and  O_7 
ROOT
HETATM    1 CL   LIG     1      17.418  38.150  25.623  1.00  0.00    -0.083 Cl
HETATM    2  C   LIG     1      17.158  37.097  24.226  1.00  0.00     0.046 A 
HETATM    3  C   LIG     1      16.896  37.659  22.957  1.00  0.00    -0.037 A 
HETATM    4  C   LIG     1      16.832  39.150  22.770  1.00  0.00     0.050 C 
HETATM    5  C   LIG     1      16.692  36.813  21.855  1.00  0.00     0.045 A 
HETATM    6  C   LIG     1      16.747  35.427  22.004  1.00  0.00     0.066 A 
HETATM    7  C   LIG     1      17.007  34.870  23.261  1.00  0.00     0.045 A 
HETATM    8  C   LIG     1      17.215  35.694  24.377  1.00  0.00    -0.037 A 
HETATM    9  C   LIG     1      17.493  35.074  25.719  1.00  0.00     0.050 C 
ENDROOT
BRANCH   6  10
HETATM   10  O   LIG     1      16.540  34.609  20.895  1.00  0.00    -0.361 OA
HETATM   11  H   LIG     1      17.305  34.328  20.293  1.00  0.00     0.217 HD
ENDBRANCH   6  10
TORSDOF 1
ENDMDL
MODEL 5
REMARK VINA RESULT:      -6.0      7.907      9.004
REMARK  1 active torsions:
REMARK  status: ('A' for Active; 'I' for Inactive)
REMARK    1  A    between atoms: C_6  and  O_7 
ROOT
HETATM    1 CL   LIG     1      15.664  31.062  13.130  1.00  0.00    -0.083 Cl
HETATM    2  C   LIG     1      15.136  31.345  14.794  1.00  0.00     0.046 A 
HETATM    3  C   LIG     1      15.795  32.308  15.590  1.00  0.00    -0.037 A 
HETATM    4  C   LIG     1      16.950  33.103  15.044  1.00  0.00     0.050 C 
HETATM    5  C   LIG     1      15.368  32.524  16.910  1.00  0.00     0.045 A 
HETATM    6  C   LIG     1      14.300  31.799  17.439  1.00  0.00     0.066 A 
HETATM    7  C   LIG     1      13.646  30.845  16.650  1.00  0.00     0.045 A 
HETATM    8  C   LIG     1      14.055  30.611  15.329  1.00  0.00    -0.037 A 
HETATM    9  C   LIG     1      13.338  29.581  14.499  1.00  0.00     0.050 C 
ENDROOT
BRANCH   6  10
HETATM   10  O   LIG     1      13.894  32.031  18.751  1.00  0.00    -0.361 OA
HETATM   11  H   LIG     1      13.324  31.363  19.257  1.00  0.00     0.217 HD
ENDBRANCH   6  10
TORSDOF 1
ENDMDL
MODEL 6
REMARK VINA RESULT:      -6.0      7.899      9.376
REMARK  1 active torsions:
REMARK  status: ('A' for Active; 'I' for Inactive)
REMARK    1  A    between atoms: C_6  and  O_7 
ROOT
HETATM    1 CL   LIG     1      15.682  31.085  13.128  1.00  0.00    -0.083 Cl
HETATM    2  C   LIG     1      15.150  31.362  14.791  1.00  0.00     0.046 A 
HETATM    3  C   LIG     1      14.080  30.611  15.325  1.00  0.00    -0.037 A 
HETATM    4  C   LIG     1      13.377  29.570  14.497  1.00  0.00     0.050 C 
HETATM    5  C   LIG     1      13.666  30.840  16.648  1.00  0.00     0.045 A 
HETATM    6  C   LIG     1      14.303  31.799  17.435  1.00  0.00     0.066 A 
HETATM    7  C   LIG     1      15.363  32.544  16.907  1.00  0.00     0.045 A 
HETATM    8  C   LIG     1      15.795  32.333  15.588  1.00  0.00    -0.037 A 
HETATM    9  C   LIG     1      16.937  33.145  15.041  1.00  0.00     0.050 C 
ENDROOT
BRANCH   6  10
HETATM   10  O   LIG     1      13.874  32.007  18.744  1.00  0.00    -0.361 OA
HETATM   11  H   LIG     1      14.293  31.516  19.525  1.00  0.00     0.217 HD
ENDBRANCH   6  10
TORSDOF 1
ENDMDL
MODEL 7
REMARK VINA RESULT:      -5.9      2.118      3.101
REMARK  1 active torsions:
REMARK  status: ('A' for Active; 'I' for Inactive)
REMARK    1  A    between atoms: C_6  and  O_7 
ROOT
HETATM    1 CL   LIG     1      19.055  39.377  21.001  1.00  0.00    -0.083 Cl
HETATM    2  C   LIG     1      17.972  38.006  21.273  1.00  0.00     0.046 A 
HETATM    3  C   LIG     1      18.107  36.834  20.497  1.00  0.00    -0.037 A 
HETATM    4  C   LIG     1      19.165  36.730  19.432  1.00  0.00     0.050 C 
HETATM    5  C   LIG     1      17.241  35.752  20.721  1.00  0.00     0.045 A 
HETATM    6  C   LIG     1      16.252  35.825  21.703  1.00  0.00     0.066 A 
HETATM    7  C   LIG     1      16.118  36.987  22.472  1.00  0.00     0.045 A 
HETATM    8  C   LIG     1      16.972  38.081  22.267  1.00  0.00    -0.037 A 
HETATM    9  C   LIG     1      16.809  39.319  23.106  1.00  0.00     0.050 C 
ENDROOT
BRANCH   6  10
HETATM   10  O   LIG     1      15.405  34.739  21.907  1.00  0.00    -0.361 OA
HETATM   11  H   LIG     1      14.992  34.550  22.812  1.00  0.00     0.217 HD
ENDBRANCH   6  10
TORSDOF 1
ENDMDL
MODEL 8
REMARK VINA RESULT:      -5.9      2.126      2.962
REMARK  1 active torsions:
REMARK  status: ('A' for Active; 'I' for Inactive)
REMARK    1  A    between atoms: C_6  and  O_7 
ROOT
HETATM    1 CL   LIG     1      19.029  39.399  21.018  1.00  0.00    -0.083 Cl
HETATM    2  C   LIG     1      17.956  38.016  21.275  1.00  0.00     0.046 A 
HETATM    3  C   LIG     1      16.949  38.078  22.263  1.00  0.00    -0.037 A 
HETATM    4  C   LIG     1      16.770  39.310  23.108  1.00  0.00     0.050 C 
HETATM    5  C   LIG     1      16.103  36.974  22.458  1.00  0.00     0.045 A 
HETATM    6  C   LIG     1      16.250  35.822  21.686  1.00  0.00     0.066 A 
HETATM    7  C   LIG     1      17.248  35.760  20.708  1.00  0.00     0.045 A 
HETATM    8  C   LIG     1      18.105  36.850  20.493  1.00  0.00    -0.037 A 
HETATM    9  C   LIG     1      19.171  36.762  19.436  1.00  0.00     0.050 C 
ENDROOT
BRANCH   6  10
HETATM   10  O   LIG     1      15.399  34.740  21.900  1.00  0.00    -0.361 OA
HETATM   11  H   LIG     1      14.472  34.705  21.491  1.00  0.00     0.217 HD
ENDBRANCH   6  10
TORSDOF 1
ENDMDL
MODEL 9
REMARK VINA RESULT:      -5.8      2.577      3.443
REMARK  1 active torsions:
REMARK  status: ('A' for Active; 'I' for Inactive)
REMARK    1  A    between atoms: C_6  and  O_7 
ROOT
HETATM    1 CL   LIG     1      16.915  34.677  24.974  1.00  0.00    -0.083 Cl
HETATM    2  C   LIG     1      17.224  36.135  24.021  1.00  0.00     0.046 A 
HETATM    3  C   LIG     1      17.717  37.299  24.651  1.00  0.00    -0.037 A 
HETATM    4  C   LIG     1      17.985  37.322  26.131  1.00  0.00     0.050 C 
HETATM    5  C   LIG     1      17.958  38.450  23.884  1.00  0.00     0.045 A 
HETATM    6  C   LIG     1      17.717  38.453  22.510  1.00  0.00     0.066 A 
HETATM    7  C   LIG     1      17.228  37.299  21.886  1.00  0.00     0.045 A 
HETATM    8  C   LIG     1      16.980  36.137  22.630  1.00  0.00    -0.037 A 
HETATM    9  C   LIG     1      16.455  34.908  21.938  1.00  0.00     0.050 C 
ENDROOT
BRANCH   6  10
HETATM   10  O   LIG     1      17.964  39.608  21.772  1.00  0.00    -0.361 OA
HETATM   11  H   LIG     1      17.382  40.432  21.865  1.00  0.00     0.217 HD
ENDBRANCH   6  10
TORSDOF 1
ENDMDL
MODEL 10
REMARK VINA RESULT:      -5.7      8.484     10.388
REMARK  1 active torsions:
REMARK  status: ('A' for Active; 'I' for Inactive)
REMARK    1  A    between atoms: C_6  and  O_7 
ROOT
HETATM    1 CL   LIG     1      13.136  30.588  16.912  1.00  0.00    -0.083 Cl
HETATM    2  C   LIG     1      14.320  31.089  15.697  1.00  0.00     0.046 A 
HETATM    3  C   LIG     1      14.447  30.362  14.493  1.00  0.00    -0.037 A 
HETATM    4  C   LIG     1      13.585  29.159  14.221  1.00  0.00     0.050 C 
HETATM    5  C   LIG     1      15.391  30.769  13.536  1.00  0.00     0.045 A 
HETATM    6  C   LIG     1      16.201  31.881  13.765  1.00  0.00     0.066 A 
HETATM    7  C   LIG     1      16.076  32.601  14.959  1.00  0.00     0.045 A 
HETATM    8  C   LIG     1      15.140  32.215  15.930  1.00  0.00    -0.037 A 
HETATM    9  C   LIG     1      15.022  33.003  17.205  1.00  0.00     0.050 C 
ENDROOT
BRANCH   6  10
HETATM   10  O   LIG     1      17.130  32.265  12.801  1.00  0.00    -0.361 OA
HETATM   11  H   LIG     1      17.097  31.898  11.857  1.00  0.00     0.217 HD
ENDBRANCH   6  10
TORSDOF 1
ENDMDL
MODEL 11
REMARK VINA RESULT:      -5.7      8.469     10.107
REMARK  1 active torsions:
REMARK  status: ('A' for Active; 'I' for Inactive)
REMARK    1  A    between atoms: C_6  and  O_7 
ROOT
HETATM    1 CL   LIG     1      13.197  30.589  16.887  1.00  0.00    -0.083 Cl
HETATM    2  C   LIG     1      14.372  31.110  15.673  1.00  0.00     0.046 A 
HETATM    3  C   LIG     1      15.184  32.240  15.914  1.00  0.00    -0.037 A 
HETATM    4  C   LIG     1      15.066  33.017  17.198  1.00  0.00     0.050 C 
HETATM    5  C   LIG     1      16.114  32.645  14.943  1.00  0.00     0.045 A 
HETATM    6  C   LIG     1      16.242  31.940  13.745  1.00  0.00     0.066 A 
HETATM    7  C   LIG     1      15.437  30.821  13.505  1.00  0.00     0.045 A 
HETATM    8  C   LIG     1      14.502  30.397  14.461  1.00  0.00    -0.037 A 
HETATM    9  C   LIG     1      13.648  29.191  14.182  1.00  0.00     0.050 C 
ENDROOT
BRANCH   6  10
HETATM   10  O   LIG     1      17.171  32.361  12.797  1.00  0.00    -0.361 OA
HETATM   11  H   LIG     1      17.045  33.221  12.276  1.00  0.00     0.217 HD
ENDBRANCH   6  10
TORSDOF 1
ENDMDL
MODEL 12
REMARK VINA RESULT:      -5.6      7.670      9.505
REMARK  1 active torsions:
REMARK  status: ('A' for Active; 'I' for Inactive)
REMARK    1  A    between atoms: C_6  and  O_7 
ROOT
HETATM    1 CL   LIG     1      16.953  33.010  14.655  1.00  0.00    -0.083 Cl
HETATM    2  C   LIG     1      15.522  32.182  15.283  1.00  0.00     0.046 A 
HETATM    3  C   LIG     1      15.036  31.024  14.637  1.00  0.00    -0.037 A 
HETATM    4  C   LIG     1      15.720  30.476  13.414  1.00  0.00     0.050 C 
HETATM    5  C   LIG     1      13.898  30.376  15.144  1.00  0.00     0.045 A 
HETATM    6  C   LIG     1      13.247  30.865  16.277  1.00  0.00     0.066 A 
HETATM    7  C   LIG     1      13.728  32.013  16.917  1.00  0.00     0.045 A 
HETATM    8  C   LIG     1      14.863  32.678  16.429  1.00  0.00    -0.037 A 
HETATM    9  C   LIG     1      15.363  33.910  17.133  1.00  0.00     0.050 C 
ENDROOT
BRANCH   6  10
HETATM   10  O   LIG     1      12.120  30.204  16.760  1.00  0.00    -0.361 OA
HETATM   11  H   LIG     1      11.917  29.245  16.504  1.00  0.00     0.217 HD
ENDBRANCH   6  10
TORSDOF 1
ENDMDL
MODEL 13
REMARK VINA RESULT:      -5.4      2.835      3.441
REMARK  1 active torsions:
REMARK  status: ('A' for Active; 'I' for Inactive)
REMARK    1  A    between atoms: C_6  and  O_7 
ROOT
HETATM    1 CL   LIG     1      16.487  38.178  22.196  1.00  0.00    -0.083 Cl
HETATM    2  C   LIG     1      16.961  37.081  23.500  1.00  0.00     0.046 A 
HETATM    3  C   LIG     1      17.336  37.601  24.758  1.00  0.00    -0.037 A 
HETATM    4  C   LIG     1      17.342  39.084  25.012  1.00  0.00     0.050 C 
HETATM    5  C   LIG     1      17.711  36.721  25.786  1.00  0.00     0.045 A 
HETATM    6  C   LIG     1      17.714  35.342  25.575  1.00  0.00     0.066 A 
HETATM    7  C   LIG     1      17.342  34.827  24.328  1.00  0.00     0.045 A 
HETATM    8  C   LIG     1      16.963  35.686  23.286  1.00  0.00    -0.037 A 
HETATM    9  C   LIG     1      16.567  35.110  21.954  1.00  0.00     0.050 C 
ENDROOT
BRANCH   6  10
HETATM   10  O   LIG     1      18.090  34.490  26.611  1.00  0.00    -0.361 OA
HETATM   11  H   LIG     1      17.713  33.553  26.690  1.00  0.00     0.217 HD
ENDBRANCH   6  10
TORSDOF 1
ENDMDL
MODEL 14
REMARK VINA RESULT:      -5.4      2.701      3.990
REMARK  1 active torsions:
REMARK  status: ('A' for Active; 'I' for Inactive)
REMARK    1  A    between atoms: C_6  and  O_7 
ROOT
HETATM    1 CL   LIG     1      16.942  38.135  21.963  1.00  0.00    -0.083 Cl
HETATM    2  C   LIG     1      17.129  37.032  23.333  1.00  0.00     0.046 A 
HETATM    3  C   LIG     1      17.038  35.637  23.134  1.00  0.00    -0.037 A 
HETATM    4  C   LIG     1      16.781  35.066  21.765  1.00  0.00     0.050 C 
HETATM    5  C   LIG     1      17.188  34.771  24.229  1.00  0.00     0.045 A 
HETATM    6  C   LIG     1      17.427  35.277  25.507  1.00  0.00     0.066 A 
HETATM    7  C   LIG     1      17.517  36.659  25.704  1.00  0.00     0.045 A 
HETATM    8  C   LIG     1      17.371  37.544  24.626  1.00  0.00    -0.037 A 
HETATM    9  C   LIG     1      17.472  39.027  24.861  1.00  0.00     0.050 C 
ENDROOT
BRANCH   6  10
HETATM   10  O   LIG     1      17.572  34.397  26.577  1.00  0.00    -0.361 OA
HETATM   11  H   LIG     1      17.880  33.441  26.441  1.00  0.00     0.217 HD
ENDBRANCH   6  10
TORSDOF 1
ENDMDL
MODEL 15
REMARK VINA RESULT:      -5.3      9.039      9.914
REMARK  1 active torsions:
REMARK  status: ('A' for Active; 'I' for Inactive)
REMARK    1  A    between atoms: C_6  and  O_7 
ROOT
HETATM    1 CL   LIG     1      15.298  33.839  16.796  1.00  0.00    -0.083 Cl
HETATM    2  C   LIG     1      15.188  32.410  15.759  1.00  0.00     0.046 A 
HETATM    3  C   LIG     1      16.130  32.214  14.726  1.00  0.00    -0.037 A 
HETATM    4  C   LIG     1      17.236  33.207  14.488  1.00  0.00     0.050 C 
HETATM    5  C   LIG     1      16.033  31.076  13.908  1.00  0.00     0.045 A 
HETATM    6  C   LIG     1      15.017  30.141  14.110  1.00  0.00     0.066 A 
HETATM    7  C   LIG     1      14.083  30.336  15.134  1.00  0.00     0.045 A 
HETATM    8  C   LIG     1      14.160  31.465  15.963  1.00  0.00    -0.037 A 
HETATM    9  C   LIG     1      13.145  31.653  17.058  1.00  0.00     0.050 C 
ENDROOT
BRANCH   6  10
HETATM   10  O   LIG     1      14.942  29.021  13.286  1.00  0.00    -0.361 OA
HETATM   11  H   LIG     1      14.857  28.086  13.667  1.00  0.00     0.217 HD
ENDBRANCH   6  10
TORSDOF 1
ENDMDL
MODEL 16
REMARK VINA RESULT:      -5.3      7.385      8.563
REMARK  1 active torsions:
REMARK  status: ('A' for Active; 'I' for Inactive)
REMARK    1  A    between atoms: C_6  and  O_7 
ROOT
HETATM    1 CL   LIG     1      14.920  30.257  13.720  1.00  0.00    -0.083 Cl
HETATM    2  C   LIG     1      15.000  31.464  15.010  1.00  0.00     0.046 A 
HETATM    3  C   LIG     1      15.970  32.490  14.957  1.00  0.00    -0.037 A 
HETATM    4  C   LIG     1      16.945  32.574  13.815  1.00  0.00     0.050 C 
HETATM    5  C   LIG     1      16.025  33.443  15.987  1.00  0.00     0.045 A 
HETATM    6  C   LIG     1      15.131  33.385  17.057  1.00  0.00     0.066 A 
HETATM    7  C   LIG     1      14.170  32.369  17.109  1.00  0.00     0.045 A 
HETATM    8  C   LIG     1      14.096  31.406  16.092  1.00  0.00    -0.037 A 
HETATM    9  C   LIG     1      13.055  30.322  16.169  1.00  0.00     0.050 C 
ENDROOT
BRANCH   6  10
HETATM   10  O   LIG     1      15.206  34.342  18.066  1.00  0.00    -0.361 OA
HETATM   11  H   LIG     1      14.390  34.611  18.604  1.00  0.00     0.217 HD
ENDBRANCH   6  10
TORSDOF 1
ENDMDL
MODEL 17
REMARK VINA RESULT:      -5.2      2.651      3.248
REMARK  1 active torsions:
REMARK  status: ('A' for Active; 'I' for Inactive)
REMARK    1  A    between atoms: C_6  and  O_7 
ROOT
HETATM    1 CL   LIG     1      15.560  36.975  22.824  1.00  0.00    -0.083 Cl
HETATM    2  C   LIG     1      16.943  37.343  21.786  1.00  0.00     0.046 A 
HETATM    3  C   LIG     1      17.644  38.559  21.947  1.00  0.00    -0.037 A 
HETATM    4  C   LIG     1      17.230  39.556  22.996  1.00  0.00     0.050 C 
HETATM    5  C   LIG     1      18.740  38.841  21.116  1.00  0.00     0.045 A 
HETATM    6  C   LIG     1      19.142  37.932  20.137  1.00  0.00     0.066 A 
HETATM    7  C   LIG     1      18.448  36.728  19.977  1.00  0.00     0.045 A 
HETATM    8  C   LIG     1      17.350  36.423  20.795  1.00  0.00    -0.037 A 
HETATM    9  C   LIG     1      16.619  35.122  20.605  1.00  0.00     0.050 C 
ENDROOT
BRANCH   6  10
HETATM   10  O   LIG     1      20.233  38.235  19.326  1.00  0.00    -0.361 OA
HETATM   11  H   LIG     1      21.172  37.944  19.569  1.00  0.00     0.217 HD
ENDBRANCH   6  10
TORSDOF 1
ENDMDL
MODEL 18
REMARK VINA RESULT:      -4.7      1.772      2.357
REMARK  1 active torsions:
REMARK  status: ('A' for Active; 'I' for Inactive)
REMARK    1  A    between atoms: C_6  and  O_7 
ROOT
HETATM    1 CL   LIG     1      16.574  35.233  20.497  1.00  0.00    -0.083 Cl
HETATM    2  C   LIG     1      17.178  36.805  21.035  1.00  0.00     0.046 A 
HETATM    3  C   LIG     1      18.351  37.345  20.461  1.00  0.00    -0.037 A 
HETATM    4  C   LIG     1      19.102  36.600  19.391  1.00  0.00     0.050 C 
HETATM    5  C   LIG     1      18.821  38.595  20.897  1.00  0.00     0.045 A 
HETATM    6  C   LIG     1      18.142  39.304  21.887  1.00  0.00     0.066 A 
HETATM    7  C   LIG     1      16.980  38.769  22.456  1.00  0.00     0.045 A 
HETATM    8  C   LIG     1      16.490  37.523  22.037  1.00  0.00    -0.037 A 
HETATM    9  C   LIG     1      15.240  36.967  22.662  1.00  0.00     0.050 C 
ENDROOT
BRANCH   6  10
HETATM   10  O   LIG     1      18.629  40.541  22.302  1.00  0.00    -0.361 OA
HETATM   11  H   LIG     1      19.102  40.654  23.191  1.00  0.00     0.217 HD
ENDBRANCH   6  10
TORSDOF 1
ENDMDL
MODEL 19
REMARK VINA RESULT:      -4.0      2.471      3.568
REMARK  1 active torsions:
REMARK  status: ('A' for Active; 'I' for Inactive)
REMARK    1  A    between atoms: C_6  and  O_7 
ROOT
HETATM    1 CL   LIG     1      20.272  39.009  23.516  1.00  0.00    -0.083 Cl
HETATM    2  C   LIG     1      18.582  38.536  23.296  1.00  0.00     0.046 A 
HETATM    3  C   LIG     1      17.894  37.869  24.334  1.00  0.00    -0.037 A 
HETATM    4  C   LIG     1      18.580  37.549  25.635  1.00  0.00     0.050 C 
HETATM    5  C   LIG     1      16.553  37.498  24.148  1.00  0.00     0.045 A 
HETATM    6  C   LIG     1      15.896  37.785  22.951  1.00  0.00     0.066 A 
HETATM    7  C   LIG     1      16.577  38.446  21.923  1.00  0.00     0.045 A 
HETATM    8  C   LIG     1      17.918  38.826  22.085  1.00  0.00    -0.037 A 
HETATM    9  C   LIG     1      18.630  39.536  20.966  1.00  0.00     0.050 C 
ENDROOT
BRANCH   6  10
HETATM   10  O   LIG     1      14.565  37.406  22.790  1.00  0.00    -0.361 OA
HETATM   11  H   LIG     1      14.312  36.492  22.436  1.00  0.00     0.217 HD
ENDBRANCH   6  10
TORSDOF 1
ENDMDL
MODEL 20
REMARK VINA RESULT:      -3.9      4.588      6.148
REMARK  1 active torsions:
REMARK  status: ('A' for Active; 'I' for Inactive)
REMARK    1  A    between atoms: C_6  and  O_7 
ROOT
HETATM    1 CL   LIG     1      14.522  31.406  17.258  1.00  0.00    -0.083 Cl
HETATM    2  C   LIG     1      15.008  32.652  18.416  1.00  0.00     0.046 A 
HETATM    3  C   LIG     1      15.123  32.335  19.788  1.00  0.00    -0.037 A 
HETATM    4  C   LIG     1      14.836  30.945  20.287  1.00  0.00     0.050 C 
HETATM    5  C   LIG     1      15.509  33.333  20.698  1.00  0.00     0.045 A 
HETATM    6  C   LIG     1      15.780  34.629  20.258  1.00  0.00     0.066 A 
HETATM    7  C   LIG     1      15.666  34.943  18.900  1.00  0.00     0.045 A 
HETATM    8  C   LIG     1      15.282  33.963  17.971  1.00  0.00    -0.037 A 
HETATM    9  C   LIG     1      15.166  34.323  16.515  1.00  0.00     0.050 C 
ENDROOT
BRANCH   6  10
HETATM   10  O   LIG     1      16.161  35.600  21.181  1.00  0.00    -0.361 OA
HETATM   11  H   LIG     1      16.274  35.384  22.164  1.00  0.00     0.217 HD
ENDBRANCH   6  10
TORSDOF 1
ENDMDL
