REMARK  1 active torsions:
REMARK  status: ('A' for Active; 'I' for Inactive)
REMARK    1  A    between atoms: O_1  and  C_2 
ROOT
HETATM    1  C   LIG     1       1.121   0.132   0.065  1.00  0.00     0.109 A 
HETATM    2  C   LIG     1       0.489  -1.128   0.047  1.00  0.00     0.070 A 
HETATM    3 CL   LIG     1       1.412  -2.623   0.126  1.00  0.00    -0.081 Cl
HETATM    4  C   LIG     1      -0.906  -1.207  -0.035  1.00  0.00     0.050 A 
HETATM    5  C   LIG     1      -1.676  -0.042  -0.100  1.00  0.00     0.037 A 
HETATM    6 CL   LIG     1      -3.424  -0.150  -0.203  1.00  0.00    -0.084 Cl
HETATM    7  C   LIG     1      -1.053   1.208  -0.082  1.00  0.00     0.050 A 
HETATM    8  C   LIG     1       0.341   1.298  -0.000  1.00  0.00     0.070 A 
HETATM    9 CL   LIG     1       1.101   2.882   0.020  1.00  0.00    -0.081 Cl
ENDROOT
BRANCH   1  10
HETATM   10  O   LIG     1       2.510   0.249   0.146  1.00  0.00    -0.357 OA
HETATM   11  H   LIG     1       3.126  -0.553   0.196  1.00  0.00     0.217 HD
ENDBRANCH   1  10
TORSDOF 1
