MODEL 1
REMARK VINA RESULT:      -6.1      0.000      0.000
REMARK  1 active torsions:
REMARK  status: ('A' for Active; 'I' for Inactive)
REMARK    1  A    between atoms: O_1  and  C_2 
ROOT
HETATM    1  C   LIG     1      17.333  37.288  24.526  1.00  0.00     0.109 A 
HETATM    2  C   LIG     1      16.991  37.782  23.251  1.00  0.00     0.070 A 
HETATM    3 CL   LIG     1      16.931  39.508  22.917  1.00  0.00    -0.081 Cl
HETATM    4  C   LIG     1      16.690  36.890  22.216  1.00  0.00     0.050 A 
HETATM    5  C   LIG     1      16.726  35.511  22.440  1.00  0.00     0.037 A 
HETATM    6 CL   LIG     1      16.347  34.399  21.137  1.00  0.00    -0.084 Cl
HETATM    7  C   LIG     1      17.064  35.018  23.703  1.00  0.00     0.050 A 
HETATM    8  C   LIG     1      17.367  35.901  24.745  1.00  0.00     0.070 A 
HETATM    9 CL   LIG     1      17.789  35.257  26.324  1.00  0.00    -0.081 Cl
ENDROOT
BRANCH   1  10
HETATM   10  O   LIG     1      17.639  38.149  25.583  1.00  0.00    -0.357 OA
HETATM   11  H   LIG     1      18.009  39.081  25.442  1.00  0.00     0.217 HD
ENDBRANCH   1  10
TORSDOF 1
ENDMDL
MODEL 2
REMARK VINA RESULT:      -6.1      0.031      2.905
REMARK  1 active torsions:
REMARK  status: ('A' for Active; 'I' for Inactive)
REMARK    1  A    between atoms: O_1  and  C_2 
ROOT
HETATM    1  C   LIG     1      17.345  37.278  24.528  1.00  0.00     0.109 A 
HETATM    2  C   LIG     1      17.369  35.886  24.753  1.00  0.00     0.070 A 
HETATM    3 CL   LIG     1      17.782  35.215  26.326  1.00  0.00    -0.081 Cl
HETATM    4  C   LIG     1      17.059  35.006  23.710  1.00  0.00     0.050 A 
HETATM    5  C   LIG     1      16.727  35.499  22.446  1.00  0.00     0.037 A 
HETATM    6 CL   LIG     1      16.340  34.389  21.144  1.00  0.00    -0.084 Cl
HETATM    7  C   LIG     1      16.701  36.877  22.219  1.00  0.00     0.050 A 
HETATM    8  C   LIG     1      17.009  37.766  23.255  1.00  0.00     0.070 A 
HETATM    9 CL   LIG     1      16.972  39.495  22.944  1.00  0.00    -0.081 Cl
ENDROOT
BRANCH   1  10
HETATM   10  O   LIG     1      17.648  38.186  25.544  1.00  0.00    -0.357 OA
HETATM   11  H   LIG     1      17.523  39.185  25.442  1.00  0.00     0.217 HD
ENDBRANCH   1  10
TORSDOF 1
ENDMDL
MODEL 3
REMARK VINA RESULT:      -5.8      2.697      3.992
REMARK  1 active torsions:
REMARK  status: ('A' for Active; 'I' for Inactive)
REMARK    1  A    between atoms: O_1  and  C_2 
ROOT
HETATM    1  C   LIG     1      17.796  36.948  20.753  1.00  0.00     0.109 A 
HETATM    2  C   LIG     1      18.300  38.196  21.172  1.00  0.00     0.070 A 
HETATM    3 CL   LIG     1      19.200  39.240  20.080  1.00  0.00    -0.081 Cl
HETATM    4  C   LIG     1      18.087  38.628  22.486  1.00  0.00     0.050 A 
HETATM    5  C   LIG     1      17.377  37.828  23.386  1.00  0.00     0.037 A 
HETATM    6 CL   LIG     1      17.115  38.377  25.031  1.00  0.00    -0.084 Cl
HETATM    7  C   LIG     1      16.876  36.591  22.974  1.00  0.00     0.050 A 
HETATM    8  C   LIG     1      17.083  36.150  21.662  1.00  0.00     0.070 A 
HETATM    9 CL   LIG     1      16.444  34.589  21.168  1.00  0.00    -0.081 Cl
ENDROOT
BRANCH   1  10
HETATM   10  O   LIG     1      17.989  36.485  19.450  1.00  0.00    -0.357 OA
HETATM   11  H   LIG     1      18.567  36.971  18.775  1.00  0.00     0.217 HD
ENDBRANCH   1  10
TORSDOF 1
ENDMDL
MODEL 4
REMARK VINA RESULT:      -5.8      2.744      4.703
REMARK  1 active torsions:
REMARK  status: ('A' for Active; 'I' for Inactive)
REMARK    1  A    between atoms: O_1  and  C_2 
ROOT
HETATM    1  C   LIG     1      17.837  36.918  20.647  1.00  0.00     0.109 A 
HETATM    2  C   LIG     1      17.094  36.118  21.540  1.00  0.00     0.070 A 
HETATM    3 CL   LIG     1      16.442  34.558  21.056  1.00  0.00    -0.081 Cl
HETATM    4  C   LIG     1      16.863  36.563  22.847  1.00  0.00     0.050 A 
HETATM    5  C   LIG     1      17.363  37.798  23.271  1.00  0.00     0.037 A 
HETATM    6 CL   LIG     1      17.068  38.349  24.910  1.00  0.00    -0.084 Cl
HETATM    7  C   LIG     1      18.100  38.592  22.389  1.00  0.00     0.050 A 
HETATM    8  C   LIG     1      18.337  38.156  21.081  1.00  0.00     0.070 A 
HETATM    9 CL   LIG     1      19.265  39.174  19.990  1.00  0.00    -0.081 Cl
ENDROOT
BRANCH   1  10
HETATM   10  O   LIG     1      18.087  36.506  19.337  1.00  0.00    -0.357 OA
HETATM   11  H   LIG     1      18.954  36.063  19.058  1.00  0.00     0.217 HD
ENDBRANCH   1  10
TORSDOF 1
ENDMDL
MODEL 5
REMARK VINA RESULT:      -5.5      2.483      3.679
REMARK  1 active torsions:
REMARK  status: ('A' for Active; 'I' for Inactive)
REMARK    1  A    between atoms: O_1  and  C_2 
ROOT
HETATM    1  C   LIG     1      18.286  38.427  21.668  1.00  0.00     0.109 A 
HETATM    2  C   LIG     1      17.442  37.842  22.633  1.00  0.00     0.070 A 
HETATM    3 CL   LIG     1      17.129  38.623  24.178  1.00  0.00    -0.081 Cl
HETATM    4  C   LIG     1      16.831  36.611  22.371  1.00  0.00     0.050 A 
HETATM    5  C   LIG     1      17.054  35.958  21.155  1.00  0.00     0.037 A 
HETATM    6 CL   LIG     1      16.284  34.414  20.834  1.00  0.00    -0.084 Cl
HETATM    7  C   LIG     1      17.889  36.535  20.196  1.00  0.00     0.050 A 
HETATM    8  C   LIG     1      18.505  37.765  20.449  1.00  0.00     0.070 A 
HETATM    9 CL   LIG     1      19.553  38.470  19.227  1.00  0.00    -0.081 Cl
ENDROOT
BRANCH   1  10
HETATM   10  O   LIG     1      18.912  39.654  21.895  1.00  0.00    -0.357 OA
HETATM   11  H   LIG     1      19.896  39.734  22.124  1.00  0.00     0.217 HD
ENDBRANCH   1  10
TORSDOF 1
ENDMDL
MODEL 6
REMARK VINA RESULT:      -5.5      2.482      3.110
REMARK  1 active torsions:
REMARK  status: ('A' for Active; 'I' for Inactive)
REMARK    1  A    between atoms: O_1  and  C_2 
ROOT
HETATM    1  C   LIG     1      18.286  38.420  21.661  1.00  0.00     0.109 A 
HETATM    2  C   LIG     1      18.516  37.757  20.438  1.00  0.00     0.070 A 
HETATM    3 CL   LIG     1      19.573  38.435  19.207  1.00  0.00    -0.081 Cl
HETATM    4  C   LIG     1      17.896  36.528  20.185  1.00  0.00     0.050 A 
HETATM    5  C   LIG     1      17.049  35.955  21.138  1.00  0.00     0.037 A 
HETATM    6 CL   LIG     1      16.275  34.415  20.811  1.00  0.00    -0.084 Cl
HETATM    7  C   LIG     1      16.819  36.610  22.350  1.00  0.00     0.050 A 
HETATM    8  C   LIG     1      17.434  37.839  22.614  1.00  0.00     0.070 A 
HETATM    9 CL   LIG     1      17.128  38.642  24.146  1.00  0.00    -0.081 Cl
ENDROOT
BRANCH   1  10
HETATM   10  O   LIG     1      18.887  39.647  21.948  1.00  0.00    -0.357 OA
HETATM   11  H   LIG     1      18.767  40.123  22.834  1.00  0.00     0.217 HD
ENDBRANCH   1  10
TORSDOF 1
ENDMDL
MODEL 7
REMARK VINA RESULT:      -5.4      1.503      3.158
REMARK  1 active torsions:
REMARK  status: ('A' for Active; 'I' for Inactive)
REMARK    1  A    between atoms: O_1  and  C_2 
ROOT
HETATM    1  C   LIG     1      17.205  35.861  24.255  1.00  0.00     0.109 A 
HETATM    2  C   LIG     1      16.868  36.011  22.894  1.00  0.00     0.070 A 
HETATM    3 CL   LIG     1      16.084  34.721  21.992  1.00  0.00    -0.081 Cl
HETATM    4  C   LIG     1      17.158  37.209  22.232  1.00  0.00     0.050 A 
HETATM    5  C   LIG     1      17.781  38.259  22.913  1.00  0.00     0.037 A 
HETATM    6 CL   LIG     1      18.141  39.758  22.076  1.00  0.00    -0.084 Cl
HETATM    7  C   LIG     1      18.116  38.114  24.261  1.00  0.00     0.050 A 
HETATM    8  C   LIG     1      17.830  36.920  24.933  1.00  0.00     0.070 A 
HETATM    9 CL   LIG     1      18.263  36.762  26.628  1.00  0.00    -0.081 Cl
ENDROOT
BRANCH   1  10
HETATM   10  O   LIG     1      16.931  34.680  24.947  1.00  0.00    -0.357 OA
HETATM   11  H   LIG     1      16.026  34.479  25.353  1.00  0.00     0.217 HD
ENDBRANCH   1  10
TORSDOF 1
ENDMDL
MODEL 8
REMARK VINA RESULT:      -5.3      1.521      3.527
REMARK  1 active torsions:
REMARK  status: ('A' for Active; 'I' for Inactive)
REMARK    1  A    between atoms: O_1  and  C_2 
ROOT
HETATM    1  C   LIG     1      17.207  35.874  24.214  1.00  0.00     0.109 A 
HETATM    2  C   LIG     1      17.834  36.935  24.898  1.00  0.00     0.070 A 
HETATM    3 CL   LIG     1      18.274  36.806  26.596  1.00  0.00    -0.081 Cl
HETATM    4  C   LIG     1      18.121  38.127  24.222  1.00  0.00     0.050 A 
HETATM    5  C   LIG     1      17.787  38.270  22.872  1.00  0.00     0.037 A 
HETATM    6 CL   LIG     1      18.149  39.767  22.032  1.00  0.00    -0.084 Cl
HETATM    7  C   LIG     1      17.166  37.220  22.191  1.00  0.00     0.050 A 
HETATM    8  C   LIG     1      16.876  36.024  22.858  1.00  0.00     0.070 A 
HETATM    9 CL   LIG     1      16.093  34.718  21.981  1.00  0.00    -0.081 Cl
ENDROOT
BRANCH   1  10
HETATM   10  O   LIG     1      16.907  34.671  24.857  1.00  0.00    -0.357 OA
HETATM   11  H   LIG     1      16.654  33.829  24.354  1.00  0.00     0.217 HD
ENDBRANCH   1  10
TORSDOF 1
ENDMDL
MODEL 9
REMARK VINA RESULT:      -5.1      8.605     10.340
REMARK  1 active torsions:
REMARK  status: ('A' for Active; 'I' for Inactive)
REMARK    1  A    between atoms: O_1  and  C_2 
ROOT
HETATM    1  C   LIG     1      14.265  31.115  16.165  1.00  0.00     0.109 A 
HETATM    2  C   LIG     1      14.371  30.590  14.862  1.00  0.00     0.070 A 
HETATM    3 CL   LIG     1      13.368  29.249  14.324  1.00  0.00    -0.081 Cl
HETATM    4  C   LIG     1      15.293  31.138  13.962  1.00  0.00     0.050 A 
HETATM    5  C   LIG     1      16.109  32.204  14.350  1.00  0.00     0.037 A 
HETATM    6 CL   LIG     1      17.261  32.886  13.217  1.00  0.00    -0.084 Cl
HETATM    7  C   LIG     1      16.006  32.728  15.641  1.00  0.00     0.050 A 
HETATM    8  C   LIG     1      15.088  32.186  16.549  1.00  0.00     0.070 A 
HETATM    9 CL   LIG     1      14.979  32.861  18.167  1.00  0.00    -0.081 Cl
ENDROOT
BRANCH   1  10
HETATM   10  O   LIG     1      13.358  30.593  17.089  1.00  0.00    -0.357 OA
HETATM   11  H   LIG     1      13.625  29.930  17.807  1.00  0.00     0.217 HD
ENDBRANCH   1  10
TORSDOF 1
ENDMDL
MODEL 10
REMARK VINA RESULT:      -5.1      8.613     10.335
REMARK  1 active torsions:
REMARK  status: ('A' for Active; 'I' for Inactive)
REMARK    1  A    between atoms: O_1  and  C_2 
ROOT
HETATM    1  C   LIG     1      14.255  31.116  16.158  1.00  0.00     0.109 A 
HETATM    2  C   LIG     1      15.082  32.190  16.546  1.00  0.00     0.070 A 
HETATM    3 CL   LIG     1      14.987  32.889  18.157  1.00  0.00    -0.081 Cl
HETATM    4  C   LIG     1      16.005  32.722  15.639  1.00  0.00     0.050 A 
HETATM    5  C   LIG     1      16.111  32.195  14.349  1.00  0.00     0.037 A 
HETATM    6 CL   LIG     1      17.270  32.869  13.218  1.00  0.00    -0.084 Cl
HETATM    7  C   LIG     1      15.294  31.130  13.961  1.00  0.00     0.050 A 
HETATM    8  C   LIG     1      14.368  30.590  14.861  1.00  0.00     0.070 A 
HETATM    9 CL   LIG     1      13.351  29.252  14.348  1.00  0.00    -0.081 Cl
ENDROOT
BRANCH   1  10
HETATM   10  O   LIG     1      13.324  30.559  17.036  1.00  0.00    -0.357 OA
HETATM   11  H   LIG     1      13.479  29.682  17.518  1.00  0.00     0.217 HD
ENDBRANCH   1  10
TORSDOF 1
ENDMDL
MODEL 11
REMARK VINA RESULT:      -5.1      8.748     10.380
REMARK  1 active torsions:
REMARK  status: ('A' for Active; 'I' for Inactive)
REMARK    1  A    between atoms: O_1  and  C_2 
ROOT
HETATM    1  C   LIG     1      15.769  32.650  15.462  1.00  0.00     0.109 A 
HETATM    2  C   LIG     1      14.852  31.988  16.304  1.00  0.00     0.070 A 
HETATM    3 CL   LIG     1      14.483  32.589  17.915  1.00  0.00    -0.081 Cl
HETATM    4  C   LIG     1      14.213  30.825  15.862  1.00  0.00     0.050 A 
HETATM    5  C   LIG     1      14.480  30.314  14.588  1.00  0.00     0.037 A 
HETATM    6 CL   LIG     1      13.674  28.855  14.041  1.00  0.00    -0.084 Cl
HETATM    7  C   LIG     1      15.387  30.967  13.750  1.00  0.00     0.050 A 
HETATM    8  C   LIG     1      16.031  32.131  14.183  1.00  0.00     0.070 A 
HETATM    9 CL   LIG     1      17.169  32.934  13.111  1.00  0.00    -0.081 Cl
ENDROOT
BRANCH   1  10
HETATM   10  O   LIG     1      16.425  33.813  15.870  1.00  0.00    -0.357 OA
HETATM   11  H   LIG     1      17.307  34.113  15.473  1.00  0.00     0.217 HD
ENDBRANCH   1  10
TORSDOF 1
ENDMDL
MODEL 12
REMARK VINA RESULT:      -5.1      8.716     10.147
REMARK  1 active torsions:
REMARK  status: ('A' for Active; 'I' for Inactive)
REMARK    1  A    between atoms: O_1  and  C_2 
ROOT
HETATM    1  C   LIG     1      15.795  32.700  15.454  1.00  0.00     0.109 A 
HETATM    2  C   LIG     1      16.068  32.174  14.175  1.00  0.00     0.070 A 
HETATM    3 CL   LIG     1      17.204  32.953  13.081  1.00  0.00    -0.081 Cl
HETATM    4  C   LIG     1      15.427  31.004  13.752  1.00  0.00     0.050 A 
HETATM    5  C   LIG     1      14.517  30.354  14.591  1.00  0.00     0.037 A 
HETATM    6 CL   LIG     1      13.718  28.888  14.053  1.00  0.00    -0.084 Cl
HETATM    7  C   LIG     1      14.245  30.873  15.859  1.00  0.00     0.050 A 
HETATM    8  C   LIG     1      14.881  32.042  16.292  1.00  0.00     0.070 A 
HETATM    9 CL   LIG     1      14.521  32.675  17.891  1.00  0.00    -0.081 Cl
ENDROOT
BRANCH   1  10
HETATM   10  O   LIG     1      16.416  33.865  15.910  1.00  0.00    -0.357 OA
HETATM   11  H   LIG     1      17.399  33.906  16.148  1.00  0.00     0.217 HD
ENDBRANCH   1  10
TORSDOF 1
ENDMDL
MODEL 13
REMARK VINA RESULT:      -5.0      2.731      3.892
REMARK  1 active torsions:
REMARK  status: ('A' for Active; 'I' for Inactive)
REMARK    1  A    between atoms: O_1  and  C_2 
ROOT
HETATM    1  C   LIG     1      16.830  37.231  21.878  1.00  0.00     0.109 A 
HETATM    2  C   LIG     1      17.454  38.480  22.077  1.00  0.00     0.070 A 
HETATM    3 CL   LIG     1      16.905  39.596  23.322  1.00  0.00    -0.081 Cl
HETATM    4  C   LIG     1      18.536  38.855  21.273  1.00  0.00     0.050 A 
HETATM    5  C   LIG     1      19.002  37.996  20.273  1.00  0.00     0.037 A 
HETATM    6 CL   LIG     1      20.360  38.474  19.269  1.00  0.00    -0.084 Cl
HETATM    7  C   LIG     1      18.387  36.758  20.074  1.00  0.00     0.050 A 
HETATM    8  C   LIG     1      17.304  36.374  20.872  1.00  0.00     0.070 A 
HETATM    9 CL   LIG     1      16.547  34.812  20.601  1.00  0.00    -0.081 Cl
ENDROOT
BRANCH   1  10
HETATM   10  O   LIG     1      15.748  36.825  22.661  1.00  0.00    -0.357 OA
HETATM   11  H   LIG     1      14.822  37.223  22.566  1.00  0.00     0.217 HD
ENDBRANCH   1  10
TORSDOF 1
ENDMDL
MODEL 14
REMARK VINA RESULT:      -4.9      1.474      3.226
REMARK  1 active torsions:
REMARK  status: ('A' for Active; 'I' for Inactive)
REMARK    1  A    between atoms: O_1  and  C_2 
ROOT
HETATM    1  C   LIG     1      17.000  36.871  22.534  1.00  0.00     0.109 A 
HETATM    2  C   LIG     1      17.308  37.627  23.683  1.00  0.00     0.070 A 
HETATM    3 CL   LIG     1      17.457  39.378  23.621  1.00  0.00    -0.081 Cl
HETATM    4  C   LIG     1      17.503  36.983  24.910  1.00  0.00     0.050 A 
HETATM    5  C   LIG     1      17.394  35.592  25.002  1.00  0.00     0.037 A 
HETATM    6 CL   LIG     1      17.640  34.793  26.544  1.00  0.00    -0.084 Cl
HETATM    7  C   LIG     1      17.088  34.840  23.866  1.00  0.00     0.050 A 
HETATM    8  C   LIG     1      16.891  35.474  22.634  1.00  0.00     0.070 A 
HETATM    9 CL   LIG     1      16.509  34.505  21.219  1.00  0.00    -0.081 Cl
ENDROOT
BRANCH   1  10
HETATM   10  O   LIG     1      16.799  37.479  21.294  1.00  0.00    -0.357 OA
HETATM   11  H   LIG     1      17.368  38.247  20.961  1.00  0.00     0.217 HD
ENDBRANCH   1  10
TORSDOF 1
ENDMDL
MODEL 15
REMARK VINA RESULT:      -4.7      8.890     10.602
REMARK  1 active torsions:
REMARK  status: ('A' for Active; 'I' for Inactive)
REMARK    1  A    between atoms: O_1  and  C_2 
ROOT
HETATM    1  C   LIG     1      15.213  31.184  14.198  1.00  0.00     0.109 A 
HETATM    2  C   LIG     1      16.058  32.223  14.638  1.00  0.00     0.070 A 
HETATM    3 CL   LIG     1      17.260  32.944  13.575  1.00  0.00    -0.081 Cl
HETATM    4  C   LIG     1      15.950  32.703  15.948  1.00  0.00     0.050 A 
HETATM    5  C   LIG     1      15.007  32.156  16.824  1.00  0.00     0.037 A 
HETATM    6 CL   LIG     1      14.878  32.763  18.464  1.00  0.00    -0.084 Cl
HETATM    7  C   LIG     1      14.168  31.127  16.391  1.00  0.00     0.050 A 
HETATM    8  C   LIG     1      14.268  30.640  15.083  1.00  0.00     0.070 A 
HETATM    9 CL   LIG     1      13.201  29.344  14.564  1.00  0.00    -0.081 Cl
ENDROOT
BRANCH   1  10
HETATM   10  O   LIG     1      15.293  30.680  12.898  1.00  0.00    -0.357 OA
HETATM   11  H   LIG     1      14.731  31.038  12.136  1.00  0.00     0.217 HD
ENDBRANCH   1  10
TORSDOF 1
ENDMDL
MODEL 16
REMARK VINA RESULT:      -4.6      8.822     10.647
REMARK  1 active torsions:
REMARK  status: ('A' for Active; 'I' for Inactive)
REMARK    1  A    between atoms: O_1  and  C_2 
ROOT
HETATM    1  C   LIG     1      15.245  31.272  14.352  1.00  0.00     0.109 A 
HETATM    2  C   LIG     1      14.260  30.641  15.140  1.00  0.00     0.070 A 
HETATM    3 CL   LIG     1      13.217  29.388  14.480  1.00  0.00    -0.081 Cl
HETATM    4  C   LIG     1      14.098  31.009  16.480  1.00  0.00     0.050 A 
HETATM    5  C   LIG     1      14.907  32.001  17.042  1.00  0.00     0.037 A 
HETATM    6 CL   LIG     1      14.697  32.457  18.723  1.00  0.00    -0.084 Cl
HETATM    7  C   LIG     1      15.883  32.629  16.265  1.00  0.00     0.050 A 
HETATM    8  C   LIG     1      16.054  32.268  14.924  1.00  0.00     0.070 A 
HETATM    9 CL   LIG     1      17.288  33.073  13.967  1.00  0.00    -0.081 Cl
ENDROOT
BRANCH   1  10
HETATM   10  O   LIG     1      15.435  30.931  13.012  1.00  0.00    -0.357 OA
HETATM   11  H   LIG     1      16.093  31.411  12.411  1.00  0.00     0.217 HD
ENDBRANCH   1  10
TORSDOF 1
ENDMDL
MODEL 17
REMARK VINA RESULT:      -4.6      8.999     10.363
REMARK  1 active torsions:
REMARK  status: ('A' for Active; 'I' for Inactive)
REMARK    1  A    between atoms: O_1  and  C_2 
ROOT
HETATM    1  C   LIG     1      16.343  32.109  14.075  1.00  0.00     0.109 A 
HETATM    2  C   LIG     1      16.458  33.149  15.019  1.00  0.00     0.070 A 
HETATM    3 CL   LIG     1      17.502  34.536  14.739  1.00  0.00    -0.081 Cl
HETATM    4  C   LIG     1      15.730  33.091  16.213  1.00  0.00     0.050 A 
HETATM    5  C   LIG     1      14.889  32.005  16.474  1.00  0.00     0.037 A 
HETATM    6 CL   LIG     1      13.980  31.940  17.973  1.00  0.00    -0.084 Cl
HETATM    7  C   LIG     1      14.772  30.973  15.541  1.00  0.00     0.050 A 
HETATM    8  C   LIG     1      15.496  31.021  14.344  1.00  0.00     0.070 A 
HETATM    9 CL   LIG     1      15.333  29.710  13.186  1.00  0.00    -0.081 Cl
ENDROOT
BRANCH   1  10
HETATM   10  O   LIG     1      17.054  32.133  12.874  1.00  0.00    -0.357 OA
HETATM   11  H   LIG     1      16.700  32.577  12.035  1.00  0.00     0.217 HD
ENDBRANCH   1  10
TORSDOF 1
ENDMDL
MODEL 18
REMARK VINA RESULT:      -3.5     17.471     19.014
REMARK  1 active torsions:
REMARK  status: ('A' for Active; 'I' for Inactive)
REMARK    1  A    between atoms: O_1  and  C_2 
ROOT
HETATM    1  C   LIG     1      21.609  21.904  36.116  1.00  0.00     0.109 A 
HETATM    2  C   LIG     1      20.313  21.435  35.818  1.00  0.00     0.070 A 
HETATM    3 CL   LIG     1      19.494  20.272  36.852  1.00  0.00    -0.081 Cl
HETATM    4  C   LIG     1      19.649  21.898  34.676  1.00  0.00     0.050 A 
HETATM    5  C   LIG     1      20.265  22.823  33.828  1.00  0.00     0.037 A 
HETATM    6 CL   LIG     1      19.427  23.397  32.398  1.00  0.00    -0.084 Cl
HETATM    7  C   LIG     1      21.549  23.290  34.120  1.00  0.00     0.050 A 
HETATM    8  C   LIG     1      22.221  22.834  35.259  1.00  0.00     0.070 A 
HETATM    9 CL   LIG     1      23.836  23.436  35.604  1.00  0.00    -0.081 Cl
ENDROOT
BRANCH   1  10
HETATM   10  O   LIG     1      22.301  21.465  37.246  1.00  0.00    -0.357 OA
HETATM   11  H   LIG     1      23.105  20.853  37.193  1.00  0.00     0.217 HD
ENDBRANCH   1  10
TORSDOF 1
ENDMDL
MODEL 19
REMARK VINA RESULT:      -3.5     20.211     21.299
REMARK  1 active torsions:
REMARK  status: ('A' for Active; 'I' for Inactive)
REMARK    1  A    between atoms: O_1  and  C_2 
ROOT
HETATM    1  C   LIG     1      14.221  18.173  12.663  1.00  0.00     0.109 A 
HETATM    2  C   LIG     1      13.135  18.153  13.562  1.00  0.00     0.070 A 
HETATM    3 CL   LIG     1      11.482  17.933  13.005  1.00  0.00    -0.081 Cl
HETATM    4  C   LIG     1      13.363  18.312  14.934  1.00  0.00     0.050 A 
HETATM    5  C   LIG     1      14.662  18.490  15.418  1.00  0.00     0.037 A 
HETATM    6 CL   LIG     1      14.939  18.688  17.139  1.00  0.00    -0.084 Cl
HETATM    7  C   LIG     1      15.740  18.510  14.530  1.00  0.00     0.050 A 
HETATM    8  C   LIG     1      15.524  18.352  13.156  1.00  0.00     0.070 A 
HETATM    9 CL   LIG     1      16.896  18.381  12.060  1.00  0.00    -0.081 Cl
ENDROOT
BRANCH   1  10
HETATM   10  O   LIG     1      14.032  18.018  11.289  1.00  0.00    -0.357 OA
HETATM   11  H   LIG     1      13.138  17.768  10.883  1.00  0.00     0.217 HD
ENDBRANCH   1  10
TORSDOF 1
ENDMDL
