REMARK  1 active torsions:
REMARK  status: ('A' for Active; 'I' for Inactive)
REMARK    1  A    between atoms: C_6  and  O_7 
ROOT
HETATM    1 CL   LIG     1       1.287  -2.476   0.247  1.00  0.00    -0.083 Cl
HETATM    2  C   LIG     1       0.451  -0.925   0.095  1.00  0.00     0.046 A 
HETATM    3  C   LIG     1      -0.954  -0.864   0.226  1.00  0.00    -0.037 A 
HETATM    4  C   LIG     1      -1.760  -2.106   0.494  1.00  0.00     0.050 C 
HETATM    5  C   LIG     1      -1.607   0.373   0.103  1.00  0.00     0.045 A 
HETATM    6  C   LIG     1      -0.881   1.538  -0.145  1.00  0.00     0.066 A 
HETATM    7  C   LIG     1       0.511   1.478  -0.275  1.00  0.00     0.045 A 
HETATM    8  C   LIG     1       1.186   0.254  -0.156  1.00  0.00    -0.037 A 
HETATM    9  C   LIG     1       2.683   0.213  -0.299  1.00  0.00     0.050 C 
ENDROOT
BRANCH   6  10
HETATM   10  O   LIG     1      -1.552   2.753  -0.263  1.00  0.00    -0.361 OA
HETATM   11  H   LIG     1      -1.056   3.618  -0.443  1.00  0.00     0.217 HD
ENDBRANCH   6  10
TORSDOF 1
