MODEL 1
REMARK VINA RESULT:      -5.4      0.000      0.000
REMARK  4 active torsions:
REMARK  status: ('A' for Active; 'I' for Inactive)
REMARK    1  A    between atoms: C_2  and  C_4 
REMARK    2  A    between atoms: C_2  and  O_3 
REMARK    3  A    between atoms: C_4  and  C_7 
REMARK    4  A    between atoms: C_4  and  C_5 
ROOT
HETATM    1  C   LIG     1      17.768  36.643  24.772  1.00  0.00     0.083 C 
ENDROOT
BRANCH   1   2
HETATM    2  C   LIG     1      16.916  37.888  24.871  1.00  0.00     0.143 C 
HETATM    3  O   LIG     1      15.898  38.018  24.142  1.00  0.00    -0.650 OA
BRANCH   2   4
HETATM    4  O   LIG     1      17.246  38.903  25.765  1.00  0.00    -0.776 OA
HETATM    5  H   LIG     1      16.985  38.853  26.742  1.00  0.00     0.167 HD
ENDBRANCH   2   4
ENDBRANCH   1   2
BRANCH   1   6
HETATM    6  C   LIG     1      16.938  35.451  24.251  1.00  0.00     0.011 C 
HETATM    7  C   LIG     1      17.089  35.252  22.742  1.00  0.00     0.006 C 
ENDBRANCH   1   6
BRANCH   1   8
HETATM    8  C   LIG     1      18.399  36.301  26.139  1.00  0.00     0.011 C 
HETATM    9  C   LIG     1      18.378  34.800  26.431  1.00  0.00     0.006 C 
ENDBRANCH   1   8
TORSDOF 4
ENDMDL
MODEL 2
REMARK VINA RESULT:      -5.2      2.468      3.632
REMARK  4 active torsions:
REMARK  status: ('A' for Active; 'I' for Inactive)
REMARK    1  A    between atoms: C_2  and  C_4 
REMARK    2  A    between atoms: C_2  and  O_3 
REMARK    3  A    between atoms: C_4  and  C_7 
REMARK    4  A    between atoms: C_4  and  C_5 
ROOT
HETATM    1  C   LIG     1      17.408  37.722  22.510  1.00  0.00     0.083 C 
ENDROOT
BRANCH   1   2
HETATM    2  C   LIG     1      16.274  37.908  23.492  1.00  0.00     0.143 C 
HETATM    3  O   LIG     1      16.502  37.910  24.731  1.00  0.00    -0.650 OA
BRANCH   2   4
HETATM    4  O   LIG     1      14.967  38.078  23.041  1.00  0.00    -0.776 OA
HETATM    5  H   LIG     1      14.657  37.688  22.160  1.00  0.00     0.167 HD
ENDBRANCH   2   4
ENDBRANCH   1   2
BRANCH   1   6
HETATM    6  C   LIG     1      17.661  39.019  21.712  1.00  0.00     0.011 C 
HETATM    7  C   LIG     1      19.027  39.022  21.025  1.00  0.00     0.006 C 
ENDBRANCH   1   6
BRANCH   1   8
HETATM    8  C   LIG     1      17.115  36.549  21.550  1.00  0.00     0.011 C 
HETATM    9  C   LIG     1      16.949  35.220  22.287  1.00  0.00     0.006 C 
ENDBRANCH   1   8
TORSDOF 4
ENDMDL
MODEL 3
REMARK VINA RESULT:      -4.8      2.249      3.727
REMARK  4 active torsions:
REMARK  status: ('A' for Active; 'I' for Inactive)
REMARK    1  A    between atoms: C_2  and  C_4 
REMARK    2  A    between atoms: C_2  and  O_3 
REMARK    3  A    between atoms: C_4  and  C_7 
REMARK    4  A    between atoms: C_4  and  C_5 
ROOT
HETATM    1  C   LIG     1      17.429  37.826  23.310  1.00  0.00     0.083 C 
ENDROOT
BRANCH   1   2
HETATM    2  C   LIG     1      16.023  37.452  22.903  1.00  0.00     0.143 C 
HETATM    3  O   LIG     1      15.828  36.509  22.091  1.00  0.00    -0.650 OA
BRANCH   2   4
HETATM    4  O   LIG     1      14.929  38.141  23.418  1.00  0.00    -0.776 OA
HETATM    5  H   LIG     1      14.269  38.614  22.813  1.00  0.00     0.167 HD
ENDBRANCH   2   4
ENDBRANCH   1   2
BRANCH   1   6
HETATM    6  C   LIG     1      17.489  38.184  24.811  1.00  0.00     0.011 C 
HETATM    7  C   LIG     1      18.095  37.061  25.653  1.00  0.00     0.006 C 
ENDBRANCH   1   6
BRANCH   1   8
HETATM    8  C   LIG     1      17.952  39.002  22.457  1.00  0.00     0.011 C 
HETATM    9  C   LIG     1      18.431  38.552  21.076  1.00  0.00     0.006 C 
ENDBRANCH   1   8
TORSDOF 4
ENDMDL
MODEL 4
REMARK VINA RESULT:      -4.7      2.658      3.689
REMARK  4 active torsions:
REMARK  status: ('A' for Active; 'I' for Inactive)
REMARK    1  A    between atoms: C_2  and  C_4 
REMARK    2  A    between atoms: C_2  and  O_3 
REMARK    3  A    between atoms: C_4  and  C_7 
REMARK    4  A    between atoms: C_4  and  C_5 
ROOT
HETATM    1  C   LIG     1      17.190  38.255  22.094  1.00  0.00     0.083 C 
ENDROOT
BRANCH   1   2
HETATM    2  C   LIG     1      16.898  38.008  23.556  1.00  0.00     0.143 C 
HETATM    3  O   LIG     1      15.716  38.075  23.986  1.00  0.00    -0.650 OA
BRANCH   2   4
HETATM    4  O   LIG     1      17.928  37.706  24.442  1.00  0.00    -0.776 OA
HETATM    5  H   LIG     1      18.159  36.749  24.678  1.00  0.00     0.167 HD
ENDBRANCH   2   4
ENDBRANCH   1   2
BRANCH   1   6
HETATM    6  C   LIG     1      17.581  36.941  21.383  1.00  0.00     0.011 C 
HETATM    7  C   LIG     1      16.627  35.793  21.715  1.00  0.00     0.006 C 
ENDBRANCH   1   6
BRANCH   1   8
HETATM    8  C   LIG     1      18.306  39.308  21.927  1.00  0.00     0.011 C 
HETATM    9  C   LIG     1      19.006  39.205  20.571  1.00  0.00     0.006 C 
ENDBRANCH   1   8
TORSDOF 4
ENDMDL
MODEL 5
REMARK VINA RESULT:      -4.7      7.882      9.008
REMARK  4 active torsions:
REMARK  status: ('A' for Active; 'I' for Inactive)
REMARK    1  A    between atoms: C_2  and  C_4 
REMARK    2  A    between atoms: C_2  and  O_3 
REMARK    3  A    between atoms: C_4  and  C_7 
REMARK    4  A    between atoms: C_4  and  C_5 
ROOT
HETATM    1  C   LIG     1      15.056  32.364  17.485  1.00  0.00     0.083 C 
ENDROOT
BRANCH   1   2
HETATM    2  C   LIG     1      15.224  33.651  16.710  1.00  0.00     0.143 C 
HETATM    3  O   LIG     1      16.179  33.781  15.899  1.00  0.00    -0.650 OA
BRANCH   2   4
HETATM    4  O   LIG     1      14.331  34.704  16.883  1.00  0.00    -0.776 OA
HETATM    5  H   LIG     1      14.016  35.264  16.101  1.00  0.00     0.167 HD
ENDBRANCH   2   4
ENDBRANCH   1   2
BRANCH   1   6
HETATM    6  C   LIG     1      13.655  31.759  17.245  1.00  0.00     0.011 C 
HETATM    7  C   LIG     1      13.621  30.838  16.025  1.00  0.00     0.006 C 
ENDBRANCH   1   6
BRANCH   1   8
HETATM    8  C   LIG     1      15.288  32.597  18.993  1.00  0.00     0.011 C 
HETATM    9  C   LIG     1      14.832  31.411  19.843  1.00  0.00     0.006 C 
ENDBRANCH   1   8
TORSDOF 4
ENDMDL
MODEL 6
REMARK VINA RESULT:      -4.7      3.169      4.278
REMARK  4 active torsions:
REMARK  status: ('A' for Active; 'I' for Inactive)
REMARK    1  A    between atoms: C_2  and  C_4 
REMARK    2  A    between atoms: C_2  and  O_3 
REMARK    3  A    between atoms: C_4  and  C_7 
REMARK    4  A    between atoms: C_4  and  C_5 
ROOT
HETATM    1  C   LIG     1      16.502  36.162  21.919  1.00  0.00     0.083 C 
ENDROOT
BRANCH   1   2
HETATM    2  C   LIG     1      15.568  35.576  20.884  1.00  0.00     0.143 C 
HETATM    3  O   LIG     1      16.033  35.041  19.843  1.00  0.00    -0.650 OA
BRANCH   2   4
HETATM    4  O   LIG     1      14.189  35.622  21.068  1.00  0.00    -0.776 OA
HETATM    5  H   LIG     1      13.769  36.218  21.770  1.00  0.00     0.167 HD
ENDBRANCH   2   4
ENDBRANCH   1   2
BRANCH   1   6
HETATM    6  C   LIG     1      17.653  36.938  21.243  1.00  0.00     0.011 C 
HETATM    7  C   LIG     1      17.717  38.396  21.698  1.00  0.00     0.006 C 
ENDBRANCH   1   6
BRANCH   1   8
HETATM    8  C   LIG     1      17.067  35.055  22.836  1.00  0.00     0.011 C 
HETATM    9  C   LIG     1      17.185  35.509  24.291  1.00  0.00     0.006 C 
ENDBRANCH   1   8
TORSDOF 4
ENDMDL
MODEL 7
REMARK VINA RESULT:      -4.6      2.193      3.105
REMARK  4 active torsions:
REMARK  status: ('A' for Active; 'I' for Inactive)
REMARK    1  A    between atoms: C_2  and  C_4 
REMARK    2  A    between atoms: C_2  and  O_3 
REMARK    3  A    between atoms: C_4  and  C_7 
REMARK    4  A    between atoms: C_4  and  C_5 
ROOT
HETATM    1  C   LIG     1      16.948  36.724  22.604  1.00  0.00     0.083 C 
ENDROOT
BRANCH   1   2
HETATM    2  C   LIG     1      15.492  37.130  22.587  1.00  0.00     0.143 C 
HETATM    3  O   LIG     1      14.680  36.541  21.825  1.00  0.00    -0.650 OA
BRANCH   2   4
HETATM    4  O   LIG     1      15.033  38.156  23.408  1.00  0.00    -0.776 OA
HETATM    5  H   LIG     1      15.331  39.114  23.274  1.00  0.00     0.167 HD
ENDBRANCH   2   4
ENDBRANCH   1   2
BRANCH   1   6
HETATM    6  C   LIG     1      17.616  37.019  21.244  1.00  0.00     0.011 C 
HETATM    7  C   LIG     1      18.197  38.432  21.175  1.00  0.00     0.006 C 
ENDBRANCH   1   6
BRANCH   1   8
HETATM    8  C   LIG     1      17.097  35.230  22.962  1.00  0.00     0.011 C 
HETATM    9  C   LIG     1      17.233  35.002  24.467  1.00  0.00     0.006 C 
ENDBRANCH   1   8
TORSDOF 4
ENDMDL
MODEL 8
REMARK VINA RESULT:      -4.5      3.355      4.926
REMARK  4 active torsions:
REMARK  status: ('A' for Active; 'I' for Inactive)
REMARK    1  A    between atoms: C_2  and  C_4 
REMARK    2  A    between atoms: C_2  and  O_3 
REMARK    3  A    between atoms: C_4  and  C_7 
REMARK    4  A    between atoms: C_4  and  C_5 
ROOT
HETATM    1  C   LIG     1      17.019  35.493  21.250  1.00  0.00     0.083 C 
ENDROOT
BRANCH   1   2
HETATM    2  C   LIG     1      15.771  35.143  20.472  1.00  0.00     0.143 C 
HETATM    3  O   LIG     1      15.859  34.726  19.287  1.00  0.00    -0.650 OA
BRANCH   2   4
HETATM    4  O   LIG     1      14.513  35.278  21.054  1.00  0.00    -0.776 OA
HETATM    5  H   LIG     1      14.037  34.488  21.473  1.00  0.00     0.167 HD
ENDBRANCH   2   4
ENDBRANCH   1   2
BRANCH   1   6
HETATM    6  C   LIG     1      16.658  36.142  22.604  1.00  0.00     0.011 C 
HETATM    7  C   LIG     1      17.218  35.359  23.792  1.00  0.00     0.006 C 
ENDBRANCH   1   6
BRANCH   1   8
HETATM    8  C   LIG     1      17.929  36.433  20.430  1.00  0.00     0.011 C 
HETATM    9  C   LIG     1      18.138  37.784  21.115  1.00  0.00     0.006 C 
ENDBRANCH   1   8
TORSDOF 4
ENDMDL
MODEL 9
REMARK VINA RESULT:      -4.4     10.818     12.053
REMARK  4 active torsions:
REMARK  status: ('A' for Active; 'I' for Inactive)
REMARK    1  A    between atoms: C_2  and  C_4 
REMARK    2  A    between atoms: C_2  and  O_3 
REMARK    3  A    between atoms: C_4  and  C_7 
REMARK    4  A    between atoms: C_4  and  C_5 
ROOT
HETATM    1  C   LIG     1      15.372  30.976  14.963  1.00  0.00     0.083 C 
ENDROOT
BRANCH   1   2
HETATM    2  C   LIG     1      16.041  32.144  14.276  1.00  0.00     0.143 C 
HETATM    3  O   LIG     1      16.120  33.259  14.857  1.00  0.00    -0.650 OA
BRANCH   2   4
HETATM    4  O   LIG     1      16.577  32.003  12.999  1.00  0.00    -0.776 OA
HETATM    5  H   LIG     1      16.712  31.092  12.580  1.00  0.00     0.167 HD
ENDBRANCH   2   4
ENDBRANCH   1   2
BRANCH   1   6
HETATM    6  C   LIG     1      14.665  30.067  13.935  1.00  0.00     0.011 C 
HETATM    7  C   LIG     1      15.307  28.682  13.842  1.00  0.00     0.006 C 
ENDBRANCH   1   6
BRANCH   1   8
HETATM    8  C   LIG     1      14.366  31.467  16.026  1.00  0.00     0.011 C 
HETATM    9  C   LIG     1      13.058  30.677  15.999  1.00  0.00     0.006 C 
ENDBRANCH   1   8
TORSDOF 4
ENDMDL
MODEL 10
REMARK VINA RESULT:      -4.4      4.247      4.971
REMARK  4 active torsions:
REMARK  status: ('A' for Active; 'I' for Inactive)
REMARK    1  A    between atoms: C_2  and  C_4 
REMARK    2  A    between atoms: C_2  and  O_3 
REMARK    3  A    between atoms: C_4  and  C_7 
REMARK    4  A    between atoms: C_4  and  C_5 
ROOT
HETATM    1  C   LIG     1      18.105  37.273  21.163  1.00  0.00     0.083 C 
ENDROOT
BRANCH   1   2
HETATM    2  C   LIG     1      18.747  37.182  19.798  1.00  0.00     0.143 C 
HETATM    3  O   LIG     1      18.255  36.431  18.914  1.00  0.00    -0.650 OA
BRANCH   2   4
HETATM    4  O   LIG     1      19.888  37.923  19.501  1.00  0.00    -0.776 OA
HETATM    5  H   LIG     1      20.101  38.209  18.553  1.00  0.00     0.167 HD
ENDBRANCH   2   4
ENDBRANCH   1   2
BRANCH   1   6
HETATM    6  C   LIG     1      16.829  36.405  21.228  1.00  0.00     0.011 C 
HETATM    7  C   LIG     1      17.019  35.155  22.088  1.00  0.00     0.006 C 
ENDBRANCH   1   6
BRANCH   1   8
HETATM    8  C   LIG     1      17.775  38.739  21.517  1.00  0.00     0.011 C 
HETATM    9  C   LIG     1      16.711  38.849  22.609  1.00  0.00     0.006 C 
ENDBRANCH   1   8
TORSDOF 4
ENDMDL
MODEL 11
REMARK VINA RESULT:      -4.4      2.685      3.838
REMARK  4 active torsions:
REMARK  status: ('A' for Active; 'I' for Inactive)
REMARK    1  A    between atoms: C_2  and  C_4 
REMARK    2  A    between atoms: C_2  and  O_3 
REMARK    3  A    between atoms: C_4  and  C_7 
REMARK    4  A    between atoms: C_4  and  C_5 
ROOT
HETATM    1  C   LIG     1      17.196  35.432  21.903  1.00  0.00     0.083 C 
ENDROOT
BRANCH   1   2
HETATM    2  C   LIG     1      17.629  36.516  20.942  1.00  0.00     0.143 C 
HETATM    3  O   LIG     1      17.739  37.706  21.339  1.00  0.00    -0.650 OA
BRANCH   2   4
HETATM    4  O   LIG     1      17.908  36.213  19.613  1.00  0.00    -0.776 OA
HETATM    5  H   LIG     1      17.182  35.913  18.974  1.00  0.00     0.167 HD
ENDBRANCH   2   4
ENDBRANCH   1   2
BRANCH   1   6
HETATM    6  C   LIG     1      15.923  34.723  21.394  1.00  0.00     0.011 C 
HETATM    7  C   LIG     1      14.740  35.682  21.251  1.00  0.00     0.006 C 
ENDBRANCH   1   6
BRANCH   1   8
HETATM    8  C   LIG     1      16.959  36.013  23.314  1.00  0.00     0.011 C 
HETATM    9  C   LIG     1      17.264  35.001  24.419  1.00  0.00     0.006 C 
ENDBRANCH   1   8
TORSDOF 4
ENDMDL
MODEL 12
REMARK VINA RESULT:      -4.4      8.329      9.732
REMARK  4 active torsions:
REMARK  status: ('A' for Active; 'I' for Inactive)
REMARK    1  A    between atoms: C_2  and  C_4 
REMARK    2  A    between atoms: C_2  and  O_3 
REMARK    3  A    between atoms: C_4  and  C_7 
REMARK    4  A    between atoms: C_4  and  C_5 
ROOT
HETATM    1  C   LIG     1      14.949  32.274  16.811  1.00  0.00     0.083 C 
ENDROOT
BRANCH   1   2
HETATM    2  C   LIG     1      15.077  33.685  17.336  1.00  0.00     0.143 C 
HETATM    3  O   LIG     1      14.929  34.666  16.559  1.00  0.00    -0.650 OA
BRANCH   2   4
HETATM    4  O   LIG     1      15.361  33.919  18.679  1.00  0.00    -0.776 OA
HETATM    5  H   LIG     1      16.282  34.211  18.982  1.00  0.00     0.167 HD
ENDBRANCH   2   4
ENDBRANCH   1   2
BRANCH   1   6
HETATM    6  C   LIG     1      15.490  32.173  15.369  1.00  0.00     0.011 C 
HETATM    7  C   LIG     1      17.014  32.282  15.310  1.00  0.00     0.006 C 
ENDBRANCH   1   6
BRANCH   1   8
HETATM    8  C   LIG     1      13.481  31.800  16.868  1.00  0.00     0.011 C 
HETATM    9  C   LIG     1      13.202  30.650  15.899  1.00  0.00     0.006 C 
ENDBRANCH   1   8
TORSDOF 4
ENDMDL
MODEL 13
REMARK VINA RESULT:      -4.3     12.383     13.527
REMARK  4 active torsions:
REMARK  status: ('A' for Active; 'I' for Inactive)
REMARK    1  A    between atoms: C_2  and  C_4 
REMARK    2  A    between atoms: C_2  and  O_3 
REMARK    3  A    between atoms: C_4  and  C_7 
REMARK    4  A    between atoms: C_4  and  C_5 
ROOT
HETATM    1  C   LIG     1      14.714  29.653  14.467  1.00  0.00     0.083 C 
ENDROOT
BRANCH   1   2
HETATM    2  C   LIG     1      14.663  28.253  13.902  1.00  0.00     0.143 C 
HETATM    3  O   LIG     1      15.718  27.570  13.805  1.00  0.00    -0.650 OA
BRANCH   2   4
HETATM    4  O   LIG     1      13.456  27.701  13.483  1.00  0.00    -0.776 OA
HETATM    5  H   LIG     1      13.420  26.812  13.000  1.00  0.00     0.167 HD
ENDBRANCH   2   4
ENDBRANCH   1   2
BRANCH   1   6
HETATM    6  C   LIG     1      13.310  30.118  14.908  1.00  0.00     0.011 C 
HETATM    7  C   LIG     1      13.312  30.726  16.312  1.00  0.00     0.006 C 
ENDBRANCH   1   6
BRANCH   1   8
HETATM    8  C   LIG     1      15.306  30.639  13.437  1.00  0.00     0.011 C 
HETATM    9  C   LIG     1      15.950  31.857  14.100  1.00  0.00     0.006 C 
ENDBRANCH   1   8
TORSDOF 4
ENDMDL
MODEL 14
REMARK VINA RESULT:      -4.3      2.943      4.417
REMARK  4 active torsions:
REMARK  status: ('A' for Active; 'I' for Inactive)
REMARK    1  A    between atoms: C_2  and  C_4 
REMARK    2  A    between atoms: C_2  and  O_3 
REMARK    3  A    between atoms: C_4  and  C_7 
REMARK    4  A    between atoms: C_4  and  C_5 
ROOT
HETATM    1  C   LIG     1      17.363  37.439  22.452  1.00  0.00     0.083 C 
ENDROOT
BRANCH   1   2
HETATM    2  C   LIG     1      16.700  36.477  21.493  1.00  0.00     0.143 C 
HETATM    3  O   LIG     1      15.497  36.145  21.661  1.00  0.00    -0.650 OA
BRANCH   2   4
HETATM    4  O   LIG     1      17.408  35.948  20.417  1.00  0.00    -0.776 OA
HETATM    5  H   LIG     1      16.937  35.472  19.658  1.00  0.00     0.167 HD
ENDBRANCH   2   4
ENDBRANCH   1   2
BRANCH   1   6
HETATM    6  C   LIG     1      16.580  37.517  23.780  1.00  0.00     0.011 C 
HETATM    7  C   LIG     1      17.417  38.109  24.915  1.00  0.00     0.006 C 
ENDBRANCH   1   6
BRANCH   1   8
HETATM    8  C   LIG     1      17.490  38.842  21.820  1.00  0.00     0.011 C 
HETATM    9  C   LIG     1      18.877  39.091  21.228  1.00  0.00     0.006 C 
ENDBRANCH   1   8
TORSDOF 4
ENDMDL
MODEL 15
REMARK VINA RESULT:      -4.3      3.157      4.204
REMARK  4 active torsions:
REMARK  status: ('A' for Active; 'I' for Inactive)
REMARK    1  A    between atoms: C_2  and  C_4 
REMARK    2  A    between atoms: C_2  and  O_3 
REMARK    3  A    between atoms: C_4  and  C_7 
REMARK    4  A    between atoms: C_4  and  C_5 
ROOT
HETATM    1  C   LIG     1      17.017  37.705  21.921  1.00  0.00     0.083 C 
ENDROOT
BRANCH   1   2
HETATM    2  C   LIG     1      17.291  36.310  21.410  1.00  0.00     0.143 C 
HETATM    3  O   LIG     1      17.629  36.130  20.210  1.00  0.00    -0.650 OA
BRANCH   2   4
HETATM    4  O   LIG     1      17.173  35.210  22.255  1.00  0.00    -0.776 OA
HETATM    5  H   LIG     1      17.122  35.319  23.260  1.00  0.00     0.167 HD
ENDBRANCH   2   4
ENDBRANCH   1   2
BRANCH   1   6
HETATM    6  C   LIG     1      18.329  38.506  22.062  1.00  0.00     0.011 C 
HETATM    7  C   LIG     1      18.632  39.351  20.824  1.00  0.00     0.006 C 
ENDBRANCH   1   6
BRANCH   1   8
HETATM    8  C   LIG     1      16.270  37.657  23.271  1.00  0.00     0.011 C 
HETATM    9  C   LIG     1      17.183  37.979  24.454  1.00  0.00     0.006 C 
ENDBRANCH   1   8
TORSDOF 4
ENDMDL
MODEL 16
REMARK VINA RESULT:      -4.3     10.396     11.517
REMARK  4 active torsions:
REMARK  status: ('A' for Active; 'I' for Inactive)
REMARK    1  A    between atoms: C_2  and  C_4 
REMARK    2  A    between atoms: C_2  and  O_3 
REMARK    3  A    between atoms: C_4  and  C_7 
REMARK    4  A    between atoms: C_4  and  C_5 
ROOT
HETATM    1  C   LIG     1      14.744  30.886  15.738  1.00  0.00     0.083 C 
ENDROOT
BRANCH   1   2
HETATM    2  C   LIG     1      13.621  30.949  16.748  1.00  0.00     0.143 C 
HETATM    3  O   LIG     1      13.773  31.583  17.825  1.00  0.00    -0.650 OA
BRANCH   2   4
HETATM    4  O   LIG     1      12.410  30.308  16.501  1.00  0.00    -0.776 OA
HETATM    5  H   LIG     1      11.962  30.356  15.594  1.00  0.00     0.167 HD
ENDBRANCH   2   4
ENDBRANCH   1   2
BRANCH   1   6
HETATM    6  C   LIG     1      15.319  32.293  15.469  1.00  0.00     0.011 C 
HETATM    7  C   LIG     1      16.841  32.280  15.317  1.00  0.00     0.006 C 
ENDBRANCH   1   6
BRANCH   1   8
HETATM    8  C   LIG     1      14.261  30.243  14.421  1.00  0.00     0.011 C 
HETATM    9  C   LIG     1      15.212  29.155  13.921  1.00  0.00     0.006 C 
ENDBRANCH   1   8
TORSDOF 4
ENDMDL
MODEL 17
REMARK VINA RESULT:      -4.3      2.051      3.245
REMARK  4 active torsions:
REMARK  status: ('A' for Active; 'I' for Inactive)
REMARK    1  A    between atoms: C_2  and  C_4 
REMARK    2  A    between atoms: C_2  and  O_3 
REMARK    3  A    between atoms: C_4  and  C_7 
REMARK    4  A    between atoms: C_4  and  C_5 
ROOT
HETATM    1  C   LIG     1      16.802  36.596  23.320  1.00  0.00     0.083 C 
ENDROOT
BRANCH   1   2
HETATM    2  C   LIG     1      17.296  36.272  24.711  1.00  0.00     0.143 C 
HETATM    3  O   LIG     1      17.561  37.199  25.521  1.00  0.00    -0.650 OA
BRANCH   2   4
HETATM    4  O   LIG     1      17.463  34.949  25.113  1.00  0.00    -0.776 OA
HETATM    5  H   LIG     1      18.372  34.587  25.374  1.00  0.00     0.167 HD
ENDBRANCH   2   4
ENDBRANCH   1   2
BRANCH   1   6
HETATM    6  C   LIG     1      16.928  35.368  22.393  1.00  0.00     0.011 C 
HETATM    7  C   LIG     1      17.149  35.762  20.932  1.00  0.00     0.006 C 
ENDBRANCH   1   6
BRANCH   1   8
HETATM    8  C   LIG     1      17.574  37.795  22.730  1.00  0.00     0.011 C 
HETATM    9  C   LIG     1      16.705  39.048  22.613  1.00  0.00     0.006 C 
ENDBRANCH   1   8
TORSDOF 4
ENDMDL
MODEL 18
REMARK VINA RESULT:      -4.2     11.548     12.874
REMARK  4 active torsions:
REMARK  status: ('A' for Active; 'I' for Inactive)
REMARK    1  A    between atoms: C_2  and  C_4 
REMARK    2  A    between atoms: C_2  and  O_3 
REMARK    3  A    between atoms: C_4  and  C_7 
REMARK    4  A    between atoms: C_4  and  C_5 
ROOT
HETATM    1  C   LIG     1      14.372  30.416  14.384  1.00  0.00     0.083 C 
ENDROOT
BRANCH   1   2
HETATM    2  C   LIG     1      14.834  29.013  14.066  1.00  0.00     0.143 C 
HETATM    3  O   LIG     1      16.037  28.685  14.249  1.00  0.00    -0.650 OA
BRANCH   2   4
HETATM    4  O   LIG     1      13.941  28.069  13.567  1.00  0.00    -0.776 OA
HETATM    5  H   LIG     1      13.142  27.760  14.106  1.00  0.00     0.167 HD
ENDBRANCH   2   4
ENDBRANCH   1   2
BRANCH   1   6
HETATM    6  C   LIG     1      15.568  31.315  14.764  1.00  0.00     0.011 C 
HETATM    7  C   LIG     1      16.090  32.122  13.574  1.00  0.00     0.006 C 
ENDBRANCH   1   6
BRANCH   1   8
HETATM    8  C   LIG     1      13.328  30.404  15.521  1.00  0.00     0.011 C 
HETATM    9  C   LIG     1      13.731  31.301  16.692  1.00  0.00     0.006 C 
ENDBRANCH   1   8
TORSDOF 4
ENDMDL
MODEL 19
REMARK VINA RESULT:      -4.2      2.782      3.350
REMARK  4 active torsions:
REMARK  status: ('A' for Active; 'I' for Inactive)
REMARK    1  A    between atoms: C_2  and  C_4 
REMARK    2  A    between atoms: C_2  and  O_3 
REMARK    3  A    between atoms: C_4  and  C_7 
REMARK    4  A    between atoms: C_4  and  C_5 
ROOT
HETATM    1  C   LIG     1      17.751  37.586  22.485  1.00  0.00     0.083 C 
ENDROOT
BRANCH   1   2
HETATM    2  C   LIG     1      18.421  38.741  21.776  1.00  0.00     0.143 C 
HETATM    3  O   LIG     1      18.000  39.123  20.652  1.00  0.00    -0.650 OA
BRANCH   2   4
HETATM    4  O   LIG     1      19.508  39.392  22.352  1.00  0.00    -0.776 OA
HETATM    5  H   LIG     1      20.334  38.885  22.645  1.00  0.00     0.167 HD
ENDBRANCH   2   4
ENDBRANCH   1   2
BRANCH   1   6
HETATM    6  C   LIG     1      17.075  36.637  21.472  1.00  0.00     0.011 C 
HETATM    7  C   LIG     1      16.945  35.211  22.009  1.00  0.00     0.006 C 
ENDBRANCH   1   6
BRANCH   1   8
HETATM    8  C   LIG     1      16.718  38.099  23.512  1.00  0.00     0.011 C 
HETATM    9  C   LIG     1      17.217  37.975  24.952  1.00  0.00     0.006 C 
ENDBRANCH   1   8
TORSDOF 4
ENDMDL
MODEL 20
REMARK VINA RESULT:      -4.1      4.122      5.144
REMARK  4 active torsions:
REMARK  status: ('A' for Active; 'I' for Inactive)
REMARK    1  A    between atoms: C_2  and  C_4 
REMARK    2  A    between atoms: C_2  and  O_3 
REMARK    3  A    between atoms: C_4  and  C_7 
REMARK    4  A    between atoms: C_4  and  C_5 
ROOT
HETATM    1  C   LIG     1      17.554  37.304  21.017  1.00  0.00     0.083 C 
ENDROOT
BRANCH   1   2
HETATM    2  C   LIG     1      18.763  37.512  20.134  1.00  0.00     0.143 C 
HETATM    3  O   LIG     1      19.342  38.630  20.106  1.00  0.00    -0.650 OA
BRANCH   2   4
HETATM    4  O   LIG     1      19.249  36.475  19.343  1.00  0.00    -0.776 OA
HETATM    5  H   LIG     1      19.596  36.642  18.406  1.00  0.00     0.167 HD
ENDBRANCH   2   4
ENDBRANCH   1   2
BRANCH   1   6
HETATM    6  C   LIG     1      17.728  38.036  22.366  1.00  0.00     0.011 C 
HETATM    7  C   LIG     1      16.581  39.006  22.653  1.00  0.00     0.006 C 
ENDBRANCH   1   6
BRANCH   1   8
HETATM    8  C   LIG     1      17.299  35.800  21.252  1.00  0.00     0.011 C 
HETATM    9  C   LIG     1      16.076  35.290  20.490  1.00  0.00     0.006 C 
ENDBRANCH   1   8
TORSDOF 4
ENDMDL
