REMARK  4 active torsions:
REMARK  status: ('A' for Active; 'I' for Inactive)
REMARK    1  A    between atoms: C_2  and  C_4 
REMARK    2  A    between atoms: C_2  and  O_3 
REMARK    3  A    between atoms: C_4  and  C_7 
REMARK    4  A    between atoms: C_4  and  C_5 
ROOT
HETATM    1  C   LIG     1       0.011   0.013   0.406  1.00  0.00     0.083 C 
ENDROOT
BRANCH   1   2
HETATM    2  C   LIG     1      -0.439   0.849  -0.770  1.00  0.00     0.143 C 
HETATM    3  O   LIG     1      -0.447   0.358  -1.930  1.00  0.00    -0.650 OA
BRANCH   2   4
HETATM    4  O   LIG     1      -0.848   2.167  -0.587  1.00  0.00    -0.776 OA
HETATM    5  H   LIG     1      -0.855   2.596   0.330  1.00  0.00     0.167 HD
ENDBRANCH   2   4
ENDBRANCH   1   2
BRANCH   1   6
HETATM    6  C   LIG     1       1.480  -0.430   0.234  1.00  0.00     0.011 C 
HETATM    7  C   LIG     1       2.449   0.753   0.239  1.00  0.00     0.006 C 
ENDBRANCH   1   6
BRANCH   1   8
HETATM    8  C   LIG     1      -0.903  -1.218   0.585  1.00  0.00     0.011 C 
HETATM    9  C   LIG     1      -2.338  -0.831   0.944  1.00  0.00     0.006 C 
ENDBRANCH   1   8
TORSDOF 4
