MODEL 1
REMARK VINA RESULT:      -5.4      0.000      0.000
REMARK  2 active torsions:
REMARK  status: ('A' for Active; 'I' for Inactive)
REMARK    1  A    between atoms: C_2  and  C_3 
REMARK    2  A    between atoms: C_2  and  O_8 
ROOT
HETATM    1  C   LIG     1      17.290  36.631  24.871  1.00  0.00     0.148 A 
HETATM    2  C   LIG     1      17.372  35.255  24.972  1.00  0.00     0.046 A 
HETATM    3  C   LIG     1      17.996  35.006  26.175  1.00  0.00     0.027 A 
HETATM    4  C   LIG     1      18.257  36.240  26.734  1.00  0.00     0.143 A 
HETATM    5  O   LIG     1      17.825  37.187  25.935  1.00  0.00    -0.316 OA
ENDROOT
BRANCH   1   6
HETATM    6  C   LIG     1      16.703  37.402  23.763  1.00  0.00     0.201 C 
HETATM    7  O   LIG     1      17.335  37.502  22.679  1.00  0.00    -0.645 OA
BRANCH   6   8
HETATM    8  O   LIG     1      15.463  38.025  23.881  1.00  0.00    -0.771 OA
HETATM    9  H   LIG     1      14.963  38.392  23.081  1.00  0.00     0.167 HD
ENDBRANCH   6   8
ENDBRANCH   1   6
TORSDOF 2
ENDMDL
MODEL 2
REMARK VINA RESULT:      -5.3      1.361      1.892
REMARK  2 active torsions:
REMARK  status: ('A' for Active; 'I' for Inactive)
REMARK    1  A    between atoms: C_2  and  C_3 
REMARK    2  A    between atoms: C_2  and  O_8 
ROOT
HETATM    1  C   LIG     1      17.525  36.894  25.384  1.00  0.00     0.148 A 
HETATM    2  C   LIG     1      18.295  36.437  26.438  1.00  0.00     0.046 A 
HETATM    3  C   LIG     1      18.279  35.062  26.342  1.00  0.00     0.027 A 
HETATM    4  C   LIG     1      17.503  34.763  25.241  1.00  0.00     0.143 A 
HETATM    5  O   LIG     1      17.069  35.873  24.692  1.00  0.00    -0.316 OA
ENDROOT
BRANCH   1   6
HETATM    6  C   LIG     1      17.232  38.296  25.047  1.00  0.00     0.201 C 
HETATM    7  O   LIG     1      16.938  38.597  23.861  1.00  0.00    -0.645 OA
BRANCH   6   8
HETATM    8  O   LIG     1      17.272  39.303  26.009  1.00  0.00    -0.771 OA
HETATM    9  H   LIG     1      16.454  39.843  26.260  1.00  0.00     0.167 HD
ENDBRANCH   6   8
ENDBRANCH   1   6
TORSDOF 2
ENDMDL
MODEL 3
REMARK VINA RESULT:      -4.8      2.902      4.353
REMARK  2 active torsions:
REMARK  status: ('A' for Active; 'I' for Inactive)
REMARK    1  A    between atoms: C_2  and  C_3 
REMARK    2  A    between atoms: C_2  and  O_8 
ROOT
HETATM    1  C   LIG     1      17.399  38.279  22.167  1.00  0.00     0.148 A 
HETATM    2  C   LIG     1      18.274  39.313  21.894  1.00  0.00     0.046 A 
HETATM    3  C   LIG     1      18.982  38.918  20.780  1.00  0.00     0.027 A 
HETATM    4  C   LIG     1      18.499  37.671  20.441  1.00  0.00     0.143 A 
HETATM    5  O   LIG     1      17.558  37.318  21.284  1.00  0.00    -0.316 OA
ENDROOT
BRANCH   1   6
HETATM    6  C   LIG     1      16.420  38.217  23.264  1.00  0.00     0.201 C 
HETATM    7  O   LIG     1      16.823  38.296  24.454  1.00  0.00    -0.645 OA
BRANCH   6   8
HETATM    8  O   LIG     1      15.056  38.072  23.022  1.00  0.00    -0.771 OA
HETATM    9  H   LIG     1      14.397  37.847  23.755  1.00  0.00     0.167 HD
ENDBRANCH   6   8
ENDBRANCH   1   6
TORSDOF 2
ENDMDL
MODEL 4
REMARK VINA RESULT:      -4.8      1.805      3.479
REMARK  2 active torsions:
REMARK  status: ('A' for Active; 'I' for Inactive)
REMARK    1  A    between atoms: C_2  and  C_3 
REMARK    2  A    between atoms: C_2  and  O_8 
ROOT
HETATM    1  C   LIG     1      17.453  36.190  25.268  1.00  0.00     0.148 A 
HETATM    2  C   LIG     1      17.633  37.506  25.651  1.00  0.00     0.046 A 
HETATM    3  C   LIG     1      17.393  38.259  24.522  1.00  0.00     0.027 A 
HETATM    4  C   LIG     1      17.083  37.362  23.521  1.00  0.00     0.143 A 
HETATM    5  O   LIG     1      17.126  36.138  23.995  1.00  0.00    -0.316 OA
ENDROOT
BRANCH   1   6
HETATM    6  C   LIG     1      17.594  34.996  26.117  1.00  0.00     0.201 C 
HETATM    7  O   LIG     1      18.745  34.591  26.426  1.00  0.00    -0.645 OA
BRANCH   6   8
HETATM    8  O   LIG     1      16.484  34.299  26.589  1.00  0.00    -0.771 OA
HETATM    9  H   LIG     1      16.555  33.366  26.975  1.00  0.00     0.167 HD
ENDBRANCH   6   8
ENDBRANCH   1   6
TORSDOF 2
ENDMDL
MODEL 5
REMARK VINA RESULT:      -4.7      1.889      3.288
REMARK  2 active torsions:
REMARK  status: ('A' for Active; 'I' for Inactive)
REMARK    1  A    between atoms: C_2  and  C_3 
REMARK    2  A    between atoms: C_2  and  O_8 
ROOT
HETATM    1  C   LIG     1      17.065  36.810  23.821  1.00  0.00     0.148 A 
HETATM    2  C   LIG     1      16.878  37.411  22.590  1.00  0.00     0.046 A 
HETATM    3  C   LIG     1      16.810  36.379  21.679  1.00  0.00     0.027 A 
HETATM    4  C   LIG     1      16.958  35.216  22.404  1.00  0.00     0.143 A 
HETATM    5  O   LIG     1      17.108  35.504  23.676  1.00  0.00    -0.316 OA
ENDROOT
BRANCH   1   6
HETATM    6  C   LIG     1      17.199  37.485  25.122  1.00  0.00     0.201 C 
HETATM    7  O   LIG     1      17.078  38.736  25.182  1.00  0.00    -0.645 OA
BRANCH   6   8
HETATM    8  O   LIG     1      17.458  36.775  26.292  1.00  0.00    -0.771 OA
HETATM    9  H   LIG     1      17.260  35.786  26.380  1.00  0.00     0.167 HD
ENDBRANCH   6   8
ENDBRANCH   1   6
TORSDOF 2
ENDMDL
MODEL 6
REMARK VINA RESULT:      -4.7      4.198      5.681
REMARK  2 active torsions:
REMARK  status: ('A' for Active; 'I' for Inactive)
REMARK    1  A    between atoms: C_2  and  C_3 
REMARK    2  A    between atoms: C_2  and  O_8 
ROOT
HETATM    1  C   LIG     1      18.735  38.710  20.305  1.00  0.00     0.148 A 
HETATM    2  C   LIG     1      18.490  39.405  21.474  1.00  0.00     0.046 A 
HETATM    3  C   LIG     1      17.783  38.540  22.281  1.00  0.00     0.027 A 
HETATM    4  C   LIG     1      17.638  37.373  21.559  1.00  0.00     0.143 A 
HETATM    5  O   LIG     1      18.216  37.505  20.387  1.00  0.00    -0.316 OA
ENDROOT
BRANCH   1   6
HETATM    6  C   LIG     1      19.460  39.200  19.122  1.00  0.00     0.201 C 
HETATM    7  O   LIG     1      18.814  39.512  18.088  1.00  0.00    -0.645 OA
BRANCH   6   8
HETATM    8  O   LIG     1      20.848  39.327  19.115  1.00  0.00    -0.771 OA
HETATM    9  H   LIG     1      21.347  39.765  18.352  1.00  0.00     0.167 HD
ENDBRANCH   6   8
ENDBRANCH   1   6
TORSDOF 2
ENDMDL
MODEL 7
REMARK VINA RESULT:      -4.6      8.896      9.990
REMARK  2 active torsions:
REMARK  status: ('A' for Active; 'I' for Inactive)
REMARK    1  A    between atoms: C_2  and  C_3 
REMARK    2  A    between atoms: C_2  and  O_8 
ROOT
HETATM    1  C   LIG     1      14.597  32.516  16.568  1.00  0.00     0.148 A 
HETATM    2  C   LIG     1      13.398  31.964  16.978  1.00  0.00     0.046 A 
HETATM    3  C   LIG     1      13.224  30.834  16.208  1.00  0.00     0.027 A 
HETATM    4  C   LIG     1      14.323  30.764  15.377  1.00  0.00     0.143 A 
HETATM    5  O   LIG     1      15.122  31.778  15.614  1.00  0.00    -0.316 OA
ENDROOT
BRANCH   1   6
HETATM    6  C   LIG     1      15.230  33.738  17.088  1.00  0.00     0.201 C 
HETATM    7  O   LIG     1      15.779  34.537  16.285  1.00  0.00    -0.645 OA
BRANCH   6   8
HETATM    8  O   LIG     1      15.238  34.037  18.448  1.00  0.00    -0.771 OA
HETATM    9  H   LIG     1      15.388  34.975  18.795  1.00  0.00     0.167 HD
ENDBRANCH   6   8
ENDBRANCH   1   6
TORSDOF 2
ENDMDL
MODEL 8
REMARK VINA RESULT:      -4.6      4.181      5.279
REMARK  2 active torsions:
REMARK  status: ('A' for Active; 'I' for Inactive)
REMARK    1  A    between atoms: C_2  and  C_3 
REMARK    2  A    between atoms: C_2  and  O_8 
ROOT
HETATM    1  C   LIG     1      18.283  37.261  20.491  1.00  0.00     0.148 A 
HETATM    2  C   LIG     1      19.254  37.237  19.507  1.00  0.00     0.046 A 
HETATM    3  C   LIG     1      19.853  38.478  19.544  1.00  0.00     0.027 A 
HETATM    4  C   LIG     1      19.215  39.182  20.544  1.00  0.00     0.143 A 
HETATM    5  O   LIG     1      18.286  38.432  21.089  1.00  0.00    -0.316 OA
ENDROOT
BRANCH   1   6
HETATM    6  C   LIG     1      17.364  36.170  20.851  1.00  0.00     0.201 C 
HETATM    7  O   LIG     1      16.810  35.504  19.938  1.00  0.00    -0.645 OA
BRANCH   6   8
HETATM    8  O   LIG     1      17.089  35.854  22.180  1.00  0.00    -0.771 OA
HETATM    9  H   LIG     1      16.646  36.509  22.811  1.00  0.00     0.167 HD
ENDBRANCH   6   8
ENDBRANCH   1   6
TORSDOF 2
ENDMDL
MODEL 9
REMARK VINA RESULT:      -4.5     10.754     11.710
REMARK  2 active torsions:
REMARK  status: ('A' for Active; 'I' for Inactive)
REMARK    1  A    between atoms: C_2  and  C_3 
REMARK    2  A    between atoms: C_2  and  O_8 
ROOT
HETATM    1  C   LIG     1      14.345  30.907  15.503  1.00  0.00     0.148 A 
HETATM    2  C   LIG     1      14.357  30.001  14.459  1.00  0.00     0.046 A 
HETATM    3  C   LIG     1      15.302  30.469  13.571  1.00  0.00     0.027 A 
HETATM    4  C   LIG     1      15.807  31.627  14.123  1.00  0.00     0.143 A 
HETATM    5  O   LIG     1      15.218  31.862  15.272  1.00  0.00    -0.316 OA
ENDROOT
BRANCH   1   6
HETATM    6  C   LIG     1      13.502  30.854  16.708  1.00  0.00     0.201 C 
HETATM    7  O   LIG     1      13.923  31.366  17.778  1.00  0.00    -0.645 OA
BRANCH   6   8
HETATM    8  O   LIG     1      12.246  30.251  16.697  1.00  0.00    -0.771 OA
HETATM    9  H   LIG     1      11.881  29.747  17.494  1.00  0.00     0.167 HD
ENDBRANCH   6   8
ENDBRANCH   1   6
TORSDOF 2
ENDMDL
MODEL 10
REMARK VINA RESULT:      -4.4      2.533      3.691
REMARK  2 active torsions:
REMARK  status: ('A' for Active; 'I' for Inactive)
REMARK    1  A    between atoms: C_2  and  C_3 
REMARK    2  A    between atoms: C_2  and  O_8 
ROOT
HETATM    1  C   LIG     1      16.380  36.602  22.477  1.00  0.00     0.148 A 
HETATM    2  C   LIG     1      17.046  35.445  22.120  1.00  0.00     0.046 A 
HETATM    3  C   LIG     1      16.174  34.747  21.313  1.00  0.00     0.027 A 
HETATM    4  C   LIG     1      15.032  35.516  21.226  1.00  0.00     0.143 A 
HETATM    5  O   LIG     1      15.185  36.614  21.929  1.00  0.00    -0.316 OA
ENDROOT
BRANCH   1   6
HETATM    6  C   LIG     1      16.888  37.684  23.336  1.00  0.00     0.201 C 
HETATM    7  O   LIG     1      17.892  38.346  22.964  1.00  0.00    -0.645 OA
BRANCH   6   8
HETATM    8  O   LIG     1      16.285  37.998  24.552  1.00  0.00    -0.771 OA
HETATM    9  H   LIG     1      16.779  37.936  25.432  1.00  0.00     0.167 HD
ENDBRANCH   6   8
ENDBRANCH   1   6
TORSDOF 2
ENDMDL
MODEL 11
REMARK VINA RESULT:      -4.4     10.541     11.676
REMARK  2 active torsions:
REMARK  status: ('A' for Active; 'I' for Inactive)
REMARK    1  A    between atoms: C_2  and  C_3 
REMARK    2  A    between atoms: C_2  and  O_8 
ROOT
HETATM    1  C   LIG     1      15.808  31.593  14.861  1.00  0.00     0.148 A 
HETATM    2  C   LIG     1      14.626  31.171  15.440  1.00  0.00     0.046 A 
HETATM    3  C   LIG     1      14.204  30.098  14.685  1.00  0.00     0.027 A 
HETATM    4  C   LIG     1      15.148  29.931  13.694  1.00  0.00     0.143 A 
HETATM    5  O   LIG     1      16.091  30.835  13.825  1.00  0.00    -0.316 OA
ENDROOT
BRANCH   1   6
HETATM    6  C   LIG     1      16.655  32.714  15.299  1.00  0.00     0.201 C 
HETATM    7  O   LIG     1      16.117  33.730  15.811  1.00  0.00    -0.645 OA
BRANCH   6   8
HETATM    8  O   LIG     1      18.041  32.681  15.163  1.00  0.00    -0.771 OA
HETATM    9  H   LIG     1      18.493  32.476  14.281  1.00  0.00     0.167 HD
ENDBRANCH   6   8
ENDBRANCH   1   6
TORSDOF 2
ENDMDL
MODEL 12
REMARK VINA RESULT:      -4.3     10.982     11.908
REMARK  2 active torsions:
REMARK  status: ('A' for Active; 'I' for Inactive)
REMARK    1  A    between atoms: C_2  and  C_3 
REMARK    2  A    between atoms: C_2  and  O_8 
ROOT
HETATM    1  C   LIG     1      14.310  30.716  15.262  1.00  0.00     0.148 A 
HETATM    2  C   LIG     1      13.211  30.733  16.101  1.00  0.00     0.046 A 
HETATM    3  C   LIG     1      13.420  31.784  16.967  1.00  0.00     0.027 A 
HETATM    4  C   LIG     1      14.629  32.343  16.609  1.00  0.00     0.143 A 
HETATM    5  O   LIG     1      15.134  31.687  15.591  1.00  0.00    -0.316 OA
ENDROOT
BRANCH   1   6
HETATM    6  C   LIG     1      14.564  29.778  14.158  1.00  0.00     0.201 C 
HETATM    7  O   LIG     1      15.656  29.839  13.535  1.00  0.00    -0.645 OA
BRANCH   6   8
HETATM    8  O   LIG     1      13.626  28.819  13.782  1.00  0.00    -0.771 OA
HETATM    9  H   LIG     1      13.894  27.922  13.397  1.00  0.00     0.167 HD
ENDBRANCH   6   8
ENDBRANCH   1   6
TORSDOF 2
ENDMDL
MODEL 13
REMARK VINA RESULT:      -4.3      9.581     10.714
REMARK  2 active torsions:
REMARK  status: ('A' for Active; 'I' for Inactive)
REMARK    1  A    between atoms: C_2  and  C_3 
REMARK    2  A    between atoms: C_2  and  O_8 
ROOT
HETATM    1  C   LIG     1      15.318  32.378  15.648  1.00  0.00     0.148 A 
HETATM    2  C   LIG     1      14.837  31.131  15.296  1.00  0.00     0.046 A 
HETATM    3  C   LIG     1      15.300  30.900  14.019  1.00  0.00     0.027 A 
HETATM    4  C   LIG     1      16.032  32.016  13.669  1.00  0.00     0.143 A 
HETATM    5  O   LIG     1      16.025  32.878  14.659  1.00  0.00    -0.316 OA
ENDROOT
BRANCH   1   6
HETATM    6  C   LIG     1      15.099  33.081  16.923  1.00  0.00     0.201 C 
HETATM    7  O   LIG     1      15.632  32.634  17.972  1.00  0.00    -0.645 OA
BRANCH   6   8
HETATM    8  O   LIG     1      14.317  34.231  17.000  1.00  0.00    -0.771 OA
HETATM    9  H   LIG     1      14.671  35.144  16.745  1.00  0.00     0.167 HD
ENDBRANCH   6   8
ENDBRANCH   1   6
TORSDOF 2
ENDMDL
MODEL 14
REMARK VINA RESULT:      -4.2     10.008     11.045
REMARK  2 active torsions:
REMARK  status: ('A' for Active; 'I' for Inactive)
REMARK    1  A    between atoms: C_2  and  C_3 
REMARK    2  A    between atoms: C_2  and  O_8 
ROOT
HETATM    1  C   LIG     1      15.090  31.725  15.609  1.00  0.00     0.148 A 
HETATM    2  C   LIG     1      14.134  31.728  16.608  1.00  0.00     0.046 A 
HETATM    3  C   LIG     1      13.208  30.776  16.239  1.00  0.00     0.027 A 
HETATM    4  C   LIG     1      13.652  30.251  15.044  1.00  0.00     0.143 A 
HETATM    5  O   LIG     1      14.774  30.835  14.695  1.00  0.00    -0.316 OA
ENDROOT
BRANCH   1   6
HETATM    6  C   LIG     1      16.294  32.568  15.537  1.00  0.00     0.201 C 
HETATM    7  O   LIG     1      17.394  32.046  15.218  1.00  0.00    -0.645 OA
BRANCH   6   8
HETATM    8  O   LIG     1      16.250  33.933  15.814  1.00  0.00    -0.771 OA
HETATM    9  H   LIG     1      15.998  34.292  16.726  1.00  0.00     0.167 HD
ENDBRANCH   6   8
ENDBRANCH   1   6
TORSDOF 2
ENDMDL
MODEL 15
REMARK VINA RESULT:      -4.2      5.336      6.292
REMARK  2 active torsions:
REMARK  status: ('A' for Active; 'I' for Inactive)
REMARK    1  A    between atoms: C_2  and  C_3 
REMARK    2  A    between atoms: C_2  and  O_8 
ROOT
HETATM    1  C   LIG     1      15.513  33.837  20.142  1.00  0.00     0.148 A 
HETATM    2  C   LIG     1      15.069  34.186  21.404  1.00  0.00     0.046 A 
HETATM    3  C   LIG     1      15.671  35.392  21.690  1.00  0.00     0.027 A 
HETATM    4  C   LIG     1      16.443  35.706  20.592  1.00  0.00     0.143 A 
HETATM    5  O   LIG     1      16.329  34.763  19.687  1.00  0.00    -0.316 OA
ENDROOT
BRANCH   1   6
HETATM    6  C   LIG     1      15.157  32.628  19.383  1.00  0.00     0.201 C 
HETATM    7  O   LIG     1      15.642  32.455  18.235  1.00  0.00    -0.645 OA
BRANCH   6   8
HETATM    8  O   LIG     1      14.294  31.666  19.903  1.00  0.00    -0.771 OA
HETATM    9  H   LIG     1      13.288  31.739  19.820  1.00  0.00     0.167 HD
ENDBRANCH   6   8
ENDBRANCH   1   6
TORSDOF 2
ENDMDL
MODEL 16
REMARK VINA RESULT:      -4.2      3.509      4.743
REMARK  2 active torsions:
REMARK  status: ('A' for Active; 'I' for Inactive)
REMARK    1  A    between atoms: C_2  and  C_3 
REMARK    2  A    between atoms: C_2  and  O_8 
ROOT
HETATM    1  C   LIG     1      16.218  35.767  21.194  1.00  0.00     0.148 A 
HETATM    2  C   LIG     1      17.431  36.177  20.674  1.00  0.00     0.046 A 
HETATM    3  C   LIG     1      17.759  37.328  21.358  1.00  0.00     0.027 A 
HETATM    4  C   LIG     1      16.731  37.551  22.250  1.00  0.00     0.143 A 
HETATM    5  O   LIG     1      15.829  36.605  22.129  1.00  0.00    -0.316 OA
ENDROOT
BRANCH   1   6
HETATM    6  C   LIG     1      15.442  34.581  20.796  1.00  0.00     0.201 C 
HETATM    7  O   LIG     1      14.640  34.065  21.617  1.00  0.00    -0.645 OA
BRANCH   6   8
HETATM    8  O   LIG     1      15.572  34.013  19.531  1.00  0.00    -0.771 OA
HETATM    9  H   LIG     1      16.434  34.061  19.002  1.00  0.00     0.167 HD
ENDBRANCH   6   8
ENDBRANCH   1   6
TORSDOF 2
ENDMDL
MODEL 17
REMARK VINA RESULT:      -4.0     12.459     13.449
REMARK  2 active torsions:
REMARK  status: ('A' for Active; 'I' for Inactive)
REMARK    1  A    between atoms: C_2  and  C_3 
REMARK    2  A    between atoms: C_2  and  O_8 
ROOT
HETATM    1  C   LIG     1      14.999  29.558  14.060  1.00  0.00     0.148 A 
HETATM    2  C   LIG     1      14.457  30.281  15.105  1.00  0.00     0.046 A 
HETATM    3  C   LIG     1      14.986  31.549  14.995  1.00  0.00     0.027 A 
HETATM    4  C   LIG     1      15.817  31.524  13.894  1.00  0.00     0.143 A 
HETATM    5  O   LIG     1      15.804  30.325  13.358  1.00  0.00    -0.316 OA
ENDROOT
BRANCH   1   6
HETATM    6  C   LIG     1      14.746  28.144  13.739  1.00  0.00     0.201 C 
HETATM    7  O   LIG     1      15.718  27.350  13.643  1.00  0.00    -0.645 OA
BRANCH   6   8
HETATM    8  O   LIG     1      13.455  27.659  13.540  1.00  0.00    -0.771 OA
HETATM    9  H   LIG     1      12.810  28.089  12.890  1.00  0.00     0.167 HD
ENDBRANCH   6   8
ENDBRANCH   1   6
TORSDOF 2
ENDMDL
MODEL 18
REMARK VINA RESULT:      -3.2     19.758     20.698
REMARK  2 active torsions:
REMARK  status: ('A' for Active; 'I' for Inactive)
REMARK    1  A    between atoms: C_2  and  C_3 
REMARK    2  A    between atoms: C_2  and  O_8 
ROOT
HETATM    1  C   LIG     1      15.411  18.874  14.907  1.00  0.00     0.148 A 
HETATM    2  C   LIG     1      14.249  18.554  15.584  1.00  0.00     0.046 A 
HETATM    3  C   LIG     1      13.292  18.364  14.612  1.00  0.00     0.027 A 
HETATM    4  C   LIG     1      13.923  18.578  13.404  1.00  0.00     0.143 A 
HETATM    5  O   LIG     1      15.183  18.880  13.612  1.00  0.00    -0.316 OA
ENDROOT
BRANCH   1   6
HETATM    6  C   LIG     1      16.725  19.171  15.500  1.00  0.00     0.201 C 
HETATM    7  O   LIG     1      17.469  18.221  15.856  1.00  0.00    -0.645 OA
BRANCH   6   8
HETATM    8  O   LIG     1      17.169  20.479  15.677  1.00  0.00    -0.771 OA
HETATM    9  H   LIG     1      17.118  20.951  16.571  1.00  0.00     0.167 HD
ENDBRANCH   6   8
ENDBRANCH   1   6
TORSDOF 2
ENDMDL
MODEL 19
REMARK VINA RESULT:      -3.0     19.678     20.481
REMARK  2 active torsions:
REMARK  status: ('A' for Active; 'I' for Inactive)
REMARK    1  A    between atoms: C_2  and  C_3 
REMARK    2  A    between atoms: C_2  and  O_8 
ROOT
HETATM    1  C   LIG     1      15.430  19.174  14.509  1.00  0.00     0.148 A 
HETATM    2  C   LIG     1      14.255  18.483  14.739  1.00  0.00     0.046 A 
HETATM    3  C   LIG     1      14.167  18.344  16.107  1.00  0.00     0.027 A 
HETATM    4  C   LIG     1      15.289  18.954  16.629  1.00  0.00     0.143 A 
HETATM    5  O   LIG     1      16.021  19.439  15.653  1.00  0.00    -0.316 OA
ENDROOT
BRANCH   1   6
HETATM    6  C   LIG     1      15.978  19.574  13.203  1.00  0.00     0.201 C 
HETATM    7  O   LIG     1      15.351  20.411  12.502  1.00  0.00    -0.645 OA
BRANCH   6   8
HETATM    8  O   LIG     1      17.175  19.051  12.720  1.00  0.00    -0.771 OA
HETATM    9  H   LIG     1      17.973  19.635  12.505  1.00  0.00     0.167 HD
ENDBRANCH   6   8
ENDBRANCH   1   6
TORSDOF 2
ENDMDL
MODEL 20
REMARK VINA RESULT:      -2.6     15.578     16.922
REMARK  2 active torsions:
REMARK  status: ('A' for Active; 'I' for Inactive)
REMARK    1  A    between atoms: C_2  and  C_3 
REMARK    2  A    between atoms: C_2  and  O_8 
ROOT
HETATM    1  C   LIG     1      27.374  31.436  37.198  1.00  0.00     0.148 A 
HETATM    2  C   LIG     1      27.582  32.438  38.127  1.00  0.00     0.046 A 
HETATM    3  C   LIG     1      28.941  32.667  38.130  1.00  0.00     0.027 A 
HETATM    4  C   LIG     1      29.479  31.795  37.206  1.00  0.00     0.143 A 
HETATM    5  O   LIG     1      28.521  31.076  36.668  1.00  0.00    -0.316 OA
ENDROOT
BRANCH   1   6
HETATM    6  C   LIG     1      26.084  30.833  36.824  1.00  0.00     0.201 C 
HETATM    7  O   LIG     1      25.584  31.095  35.699  1.00  0.00    -0.645 OA
BRANCH   6   8
HETATM    8  O   LIG     1      25.401  29.976  37.684  1.00  0.00    -0.771 OA
HETATM    9  H   LIG     1      25.346  28.979  37.523  1.00  0.00     0.167 HD
ENDBRANCH   6   8
ENDBRANCH   1   6
TORSDOF 2
ENDMDL
