MODEL 1
REMARK VINA RESULT:      -5.0      0.000      0.000
REMARK  2 active torsions:
REMARK  status: ('A' for Active; 'I' for Inactive)
REMARK    1  A    between atoms: C_2  and  C_4 
REMARK    2  A    between atoms: C_2  and  O_3 
ROOT
HETATM    1  C   LIG     1      17.150  36.727  24.577  1.00  0.00     0.044 A 
HETATM    2  C   LIG     1      17.209  35.338  24.690  1.00  0.00     0.067 A 
HETATM    3  S   LIG     1      18.032  34.961  26.105  1.00  0.00    -0.113 SA
HETATM    4  C   LIG     1      18.324  36.541  26.594  1.00  0.00     0.050 A 
HETATM    5  C   LIG     1      17.776  37.392  25.647  1.00  0.00     0.026 A 
ENDROOT
BRANCH   1   6
HETATM    6  C   LIG     1      16.501  37.448  23.458  1.00  0.00     0.176 C 
HETATM    7  O   LIG     1      17.062  37.477  22.331  1.00  0.00    -0.646 OA
BRANCH   6   8
HETATM    8  O   LIG     1      15.279  38.101  23.611  1.00  0.00    -0.773 OA
HETATM    9  H   LIG     1      15.000  38.548  24.473  1.00  0.00     0.167 HD
ENDBRANCH   6   8
ENDBRANCH   1   6
TORSDOF 2
ENDMDL
MODEL 2
REMARK VINA RESULT:      -4.8      3.409      4.151
REMARK  2 active torsions:
REMARK  status: ('A' for Active; 'I' for Inactive)
REMARK    1  A    between atoms: C_2  and  C_4 
REMARK    2  A    between atoms: C_2  and  O_3 
ROOT
HETATM    1  C   LIG     1      17.450  38.199  21.989  1.00  0.00     0.044 A 
HETATM    2  C   LIG     1      17.554  37.069  21.177  1.00  0.00     0.067 A 
HETATM    3  S   LIG     1      18.714  37.375  20.000  1.00  0.00    -0.113 SA
HETATM    4  C   LIG     1      19.098  38.932  20.496  1.00  0.00     0.050 A 
HETATM    5  C   LIG     1      18.317  39.237  21.601  1.00  0.00     0.026 A 
ENDROOT
BRANCH   1   6
HETATM    6  C   LIG     1      16.530  38.316  23.142  1.00  0.00     0.176 C 
HETATM    7  O   LIG     1      16.991  38.602  24.278  1.00  0.00    -0.646 OA
BRANCH   6   8
HETATM    8  O   LIG     1      15.155  38.119  23.013  1.00  0.00    -0.773 OA
HETATM    9  H   LIG     1      14.585  38.644  22.364  1.00  0.00     0.167 HD
ENDBRANCH   6   8
ENDBRANCH   1   6
TORSDOF 2
ENDMDL
MODEL 3
REMARK VINA RESULT:      -4.7      4.986      5.710
REMARK  2 active torsions:
REMARK  status: ('A' for Active; 'I' for Inactive)
REMARK    1  A    between atoms: C_2  and  C_4 
REMARK    2  A    between atoms: C_2  and  O_3 
ROOT
HETATM    1  C   LIG     1      18.757  38.306  19.914  1.00  0.00     0.044 A 
HETATM    2  C   LIG     1      18.193  38.841  21.072  1.00  0.00     0.067 A 
HETATM    3  S   LIG     1      17.411  37.602  21.894  1.00  0.00    -0.113 SA
HETATM    4  C   LIG     1      17.770  36.378  20.802  1.00  0.00     0.050 A 
HETATM    5  C   LIG     1      18.515  36.928  19.770  1.00  0.00     0.026 A 
ENDROOT
BRANCH   1   6
HETATM    6  C   LIG     1      19.532  39.089  18.924  1.00  0.00     0.176 C 
HETATM    7  O   LIG     1      18.952  39.548  17.904  1.00  0.00    -0.646 OA
BRANCH   6   8
HETATM    8  O   LIG     1      20.894  39.338  19.083  1.00  0.00    -0.773 OA
HETATM    9  H   LIG     1      21.504  38.731  19.614  1.00  0.00     0.167 HD
ENDBRANCH   6   8
ENDBRANCH   1   6
TORSDOF 2
ENDMDL
MODEL 4
REMARK VINA RESULT:      -4.7      3.274      4.283
REMARK  2 active torsions:
REMARK  status: ('A' for Active; 'I' for Inactive)
REMARK    1  A    between atoms: C_2  and  C_4 
REMARK    2  A    between atoms: C_2  and  O_3 
ROOT
HETATM    1  C   LIG     1      17.687  38.211  22.599  1.00  0.00     0.044 A 
HETATM    2  C   LIG     1      18.447  39.266  22.093  1.00  0.00     0.067 A 
HETATM    3  S   LIG     1      18.901  38.880  20.523  1.00  0.00    -0.113 SA
HETATM    4  C   LIG     1      18.148  37.381  20.458  1.00  0.00     0.050 A 
HETATM    5  C   LIG     1      17.524  37.160  21.677  1.00  0.00     0.026 A 
ENDROOT
BRANCH   1   6
HETATM    6  C   LIG     1      17.103  38.179  23.958  1.00  0.00     0.176 C 
HETATM    7  O   LIG     1      15.859  38.035  24.097  1.00  0.00    -0.646 OA
BRANCH   6   8
HETATM    8  O   LIG     1      17.890  38.302  25.103  1.00  0.00    -0.773 OA
HETATM    9  H   LIG     1      17.505  38.284  26.037  1.00  0.00     0.167 HD
ENDBRANCH   6   8
ENDBRANCH   1   6
TORSDOF 2
ENDMDL
MODEL 5
REMARK VINA RESULT:      -4.6      2.612      3.350
REMARK  2 active torsions:
REMARK  status: ('A' for Active; 'I' for Inactive)
REMARK    1  A    between atoms: C_2  and  C_4 
REMARK    2  A    between atoms: C_2  and  O_3 
ROOT
HETATM    1  C   LIG     1      17.239  36.894  24.214  1.00  0.00     0.044 A 
HETATM    2  C   LIG     1      17.050  37.629  23.044  1.00  0.00     0.067 A 
HETATM    3  S   LIG     1      16.781  36.550  21.784  1.00  0.00    -0.113 SA
HETATM    4  C   LIG     1      16.900  35.145  22.695  1.00  0.00     0.050 A 
HETATM    5  C   LIG     1      17.154  35.504  24.009  1.00  0.00     0.026 A 
ENDROOT
BRANCH   1   6
HETATM    6  C   LIG     1      17.504  37.490  25.542  1.00  0.00     0.176 C 
HETATM    7  O   LIG     1      17.974  36.772  26.464  1.00  0.00    -0.646 OA
BRANCH   6   8
HETATM    8  O   LIG     1      17.249  38.835  25.812  1.00  0.00    -0.773 OA
HETATM    9  H   LIG     1      17.855  39.581  25.498  1.00  0.00     0.167 HD
ENDBRANCH   6   8
ENDBRANCH   1   6
TORSDOF 2
ENDMDL
MODEL 6
REMARK VINA RESULT:      -4.5     10.621     11.465
REMARK  2 active torsions:
REMARK  status: ('A' for Active; 'I' for Inactive)
REMARK    1  A    between atoms: C_2  and  C_4 
REMARK    2  A    between atoms: C_2  and  O_3 
ROOT
HETATM    1  C   LIG     1      14.457  31.135  15.648  1.00  0.00     0.044 A 
HETATM    2  C   LIG     1      15.372  32.183  15.544  1.00  0.00     0.067 A 
HETATM    3  S   LIG     1      16.153  32.052  14.063  1.00  0.00    -0.113 SA
HETATM    4  C   LIG     1      15.352  30.675  13.534  1.00  0.00     0.050 A 
HETATM    5  C   LIG     1      14.452  30.296  14.519  1.00  0.00     0.026 A 
ENDROOT
BRANCH   1   6
HETATM    6  C   LIG     1      13.574  30.909  16.814  1.00  0.00     0.176 C 
HETATM    7  O   LIG     1      13.947  31.282  17.958  1.00  0.00    -0.646 OA
BRANCH   6   8
HETATM    8  O   LIG     1      12.329  30.293  16.689  1.00  0.00    -0.773 OA
HETATM    9  H   LIG     1      12.217  29.289  16.650  1.00  0.00     0.167 HD
ENDBRANCH   6   8
ENDBRANCH   1   6
TORSDOF 2
ENDMDL
MODEL 7
REMARK VINA RESULT:      -4.5      2.701      3.510
REMARK  2 active torsions:
REMARK  status: ('A' for Active; 'I' for Inactive)
REMARK    1  A    between atoms: C_2  and  C_4 
REMARK    2  A    between atoms: C_2  and  O_3 
ROOT
HETATM    1  C   LIG     1      17.311  37.519  23.640  1.00  0.00     0.044 A 
HETATM    2  C   LIG     1      16.907  36.359  22.978  1.00  0.00     0.067 A 
HETATM    3  S   LIG     1      17.168  36.578  21.333  1.00  0.00    -0.113 SA
HETATM    4  C   LIG     1      17.792  38.133  21.433  1.00  0.00     0.050 A 
HETATM    5  C   LIG     1      17.804  38.506  22.768  1.00  0.00     0.026 A 
ENDROOT
BRANCH   1   6
HETATM    6  C   LIG     1      17.236  37.712  25.106  1.00  0.00     0.176 C 
HETATM    7  O   LIG     1      17.076  38.871  25.572  1.00  0.00    -0.646 OA
BRANCH   6   8
HETATM    8  O   LIG     1      17.338  36.645  25.998  1.00  0.00    -0.773 OA
HETATM    9  H   LIG     1      16.609  35.954  26.111  1.00  0.00     0.167 HD
ENDBRANCH   6   8
ENDBRANCH   1   6
TORSDOF 2
ENDMDL
MODEL 8
REMARK VINA RESULT:      -4.5      4.362      5.192
REMARK  2 active torsions:
REMARK  status: ('A' for Active; 'I' for Inactive)
REMARK    1  A    between atoms: C_2  and  C_4 
REMARK    2  A    between atoms: C_2  and  O_3 
ROOT
HETATM    1  C   LIG     1      18.002  36.932  20.609  1.00  0.00     0.044 A 
HETATM    2  C   LIG     1      17.927  38.118  21.341  1.00  0.00     0.067 A 
HETATM    3  S   LIG     1      19.059  39.191  20.716  1.00  0.00    -0.113 SA
HETATM    4  C   LIG     1      19.658  38.178  19.519  1.00  0.00     0.050 A 
HETATM    5  C   LIG     1      18.973  36.975  19.592  1.00  0.00     0.026 A 
ENDROOT
BRANCH   1   6
HETATM    6  C   LIG     1      17.159  35.741  20.860  1.00  0.00     0.176 C 
HETATM    7  O   LIG     1      17.185  35.190  21.992  1.00  0.00    -0.646 OA
BRANCH   6   8
HETATM    8  O   LIG     1      16.330  35.204  19.876  1.00  0.00    -0.773 OA
HETATM    9  H   LIG     1      15.340  35.056  20.016  1.00  0.00     0.167 HD
ENDBRANCH   6   8
ENDBRANCH   1   6
TORSDOF 2
ENDMDL
MODEL 9
REMARK VINA RESULT:      -4.5      4.058      4.746
REMARK  2 active torsions:
REMARK  status: ('A' for Active; 'I' for Inactive)
REMARK    1  A    between atoms: C_2  and  C_4 
REMARK    2  A    between atoms: C_2  and  O_3 
ROOT
HETATM    1  C   LIG     1      18.475  38.505  20.808  1.00  0.00     0.044 A 
HETATM    2  C   LIG     1      17.924  37.224  20.790  1.00  0.00     0.067 A 
HETATM    3  S   LIG     1      17.030  37.018  22.197  1.00  0.00    -0.113 SA
HETATM    4  C   LIG     1      17.326  38.538  22.847  1.00  0.00     0.050 A 
HETATM    5  C   LIG     1      18.136  39.233  21.963  1.00  0.00     0.026 A 
ENDROOT
BRANCH   1   6
HETATM    6  C   LIG     1      19.332  39.061  19.736  1.00  0.00     0.176 C 
HETATM    7  O   LIG     1      20.583  38.955  19.823  1.00  0.00    -0.646 OA
BRANCH   6   8
HETATM    8  O   LIG     1      18.795  39.704  18.621  1.00  0.00    -0.773 OA
HETATM    9  H   LIG     1      18.909  40.694  18.451  1.00  0.00     0.167 HD
ENDBRANCH   6   8
ENDBRANCH   1   6
TORSDOF 2
ENDMDL
MODEL 10
REMARK VINA RESULT:      -4.4      3.169      3.768
REMARK  2 active torsions:
REMARK  status: ('A' for Active; 'I' for Inactive)
REMARK    1  A    between atoms: C_2  and  C_4 
REMARK    2  A    between atoms: C_2  and  O_3 
ROOT
HETATM    1  C   LIG     1      17.319  37.003  21.652  1.00  0.00     0.044 A 
HETATM    2  C   LIG     1      16.855  36.415  22.828  1.00  0.00     0.067 A 
HETATM    3  S   LIG     1      16.744  37.610  24.004  1.00  0.00    -0.113 SA
HETATM    4  C   LIG     1      17.279  38.882  23.048  1.00  0.00     0.050 A 
HETATM    5  C   LIG     1      17.554  38.384  21.783  1.00  0.00     0.026 A 
ENDROOT
BRANCH   1   6
HETATM    6  C   LIG     1      17.549  36.271  20.386  1.00  0.00     0.176 C 
HETATM    7  O   LIG     1      16.709  35.415  20.002  1.00  0.00    -0.646 OA
BRANCH   6   8
HETATM    8  O   LIG     1      18.674  36.500  19.595  1.00  0.00    -0.773 OA
HETATM    9  H   LIG     1      19.617  36.457  19.957  1.00  0.00     0.167 HD
ENDBRANCH   6   8
ENDBRANCH   1   6
TORSDOF 2
ENDMDL
MODEL 11
REMARK VINA RESULT:      -4.3     10.840     11.635
REMARK  2 active torsions:
REMARK  status: ('A' for Active; 'I' for Inactive)
REMARK    1  A    between atoms: C_2  and  C_4 
REMARK    2  A    between atoms: C_2  and  O_3 
ROOT
HETATM    1  C   LIG     1      14.587  30.909  15.190  1.00  0.00     0.044 A 
HETATM    2  C   LIG     1      15.482  31.962  15.380  1.00  0.00     0.067 A 
HETATM    3  S   LIG     1      15.004  32.817  16.745  1.00  0.00    -0.113 SA
HETATM    4  C   LIG     1      13.665  31.874  17.114  1.00  0.00     0.050 A 
HETATM    5  C   LIG     1      13.573  30.867  16.165  1.00  0.00     0.026 A 
ENDROOT
BRANCH   1   6
HETATM    6  C   LIG     1      14.674  29.926  14.086  1.00  0.00     0.176 C 
HETATM    7  O   LIG     1      15.695  29.909  13.350  1.00  0.00    -0.646 OA
BRANCH   6   8
HETATM    8  O   LIG     1      13.654  29.010  13.831  1.00  0.00    -0.773 OA
HETATM    9  H   LIG     1      13.342  28.783  12.897  1.00  0.00     0.167 HD
ENDBRANCH   6   8
ENDBRANCH   1   6
TORSDOF 2
ENDMDL
MODEL 12
REMARK VINA RESULT:      -4.3      9.413     10.280
REMARK  2 active torsions:
REMARK  status: ('A' for Active; 'I' for Inactive)
REMARK    1  A    between atoms: C_2  and  C_4 
REMARK    2  A    between atoms: C_2  and  O_3 
ROOT
HETATM    1  C   LIG     1      15.015  32.302  16.087  1.00  0.00     0.044 A 
HETATM    2  C   LIG     1      15.773  31.894  14.989  1.00  0.00     0.067 A 
HETATM    3  S   LIG     1      15.066  30.510  14.350  1.00  0.00    -0.113 SA
HETATM    4  C   LIG     1      13.799  30.407  15.447  1.00  0.00     0.050 A 
HETATM    5  C   LIG     1      13.913  31.464  16.336  1.00  0.00     0.026 A 
ENDROOT
BRANCH   1   6
HETATM    6  C   LIG     1      15.321  33.489  16.918  1.00  0.00     0.176 C 
HETATM    7  O   LIG     1      15.738  34.542  16.368  1.00  0.00    -0.646 OA
BRANCH   6   8
HETATM    8  O   LIG     1      15.160  33.481  18.303  1.00  0.00    -0.773 OA
HETATM    9  H   LIG     1      15.760  34.003  18.927  1.00  0.00     0.167 HD
ENDBRANCH   6   8
ENDBRANCH   1   6
TORSDOF 2
ENDMDL
MODEL 13
REMARK VINA RESULT:      -4.3     10.272     11.136
REMARK  2 active torsions:
REMARK  status: ('A' for Active; 'I' for Inactive)
REMARK    1  A    between atoms: C_2  and  C_4 
REMARK    2  A    between atoms: C_2  and  O_3 
ROOT
HETATM    1  C   LIG     1      15.207  31.725  15.159  1.00  0.00     0.044 A 
HETATM    2  C   LIG     1      15.640  32.655  16.105  1.00  0.00     0.067 A 
HETATM    3  S   LIG     1      14.734  32.439  17.503  1.00  0.00    -0.113 SA
HETATM    4  C   LIG     1      13.787  31.175  16.937  1.00  0.00     0.050 A 
HETATM    5  C   LIG     1      14.170  30.901  15.633  1.00  0.00     0.026 A 
ENDROOT
BRANCH   1   6
HETATM    6  C   LIG     1      15.766  31.601  13.794  1.00  0.00     0.176 C 
HETATM    7  O   LIG     1      15.884  30.461  13.272  1.00  0.00    -0.646 OA
BRANCH   6   8
HETATM    8  O   LIG     1      16.170  32.714  13.057  1.00  0.00    -0.773 OA
HETATM    9  H   LIG     1      16.024  32.794  12.060  1.00  0.00     0.167 HD
ENDBRANCH   6   8
ENDBRANCH   1   6
TORSDOF 2
ENDMDL
MODEL 14
REMARK VINA RESULT:      -4.1      9.929     10.654
REMARK  2 active torsions:
REMARK  status: ('A' for Active; 'I' for Inactive)
REMARK    1  A    between atoms: C_2  and  C_4 
REMARK    2  A    between atoms: C_2  and  O_3 
ROOT
HETATM    1  C   LIG     1      15.404  32.042  15.470  1.00  0.00     0.044 A 
HETATM    2  C   LIG     1      14.624  30.945  15.105  1.00  0.00     0.067 A 
HETATM    3  S   LIG     1      13.407  30.763  16.249  1.00  0.00    -0.113 SA
HETATM    4  C   LIG     1      13.846  32.062  17.218  1.00  0.00     0.050 A 
HETATM    5  C   LIG     1      14.962  32.661  16.654  1.00  0.00     0.026 A 
ENDROOT
BRANCH   1   6
HETATM    6  C   LIG     1      16.578  32.523  14.708  1.00  0.00     0.176 C 
HETATM    7  O   LIG     1      16.421  32.970  13.541  1.00  0.00    -0.646 OA
BRANCH   6   8
HETATM    8  O   LIG     1      17.866  32.498  15.243  1.00  0.00    -0.773 OA
HETATM    9  H   LIG     1      18.452  33.319  15.299  1.00  0.00     0.167 HD
ENDBRANCH   6   8
ENDBRANCH   1   6
TORSDOF 2
ENDMDL
MODEL 15
REMARK VINA RESULT:      -4.0      3.824      4.554
REMARK  2 active torsions:
REMARK  status: ('A' for Active; 'I' for Inactive)
REMARK    1  A    between atoms: C_2  and  C_4 
REMARK    2  A    between atoms: C_2  and  O_3 
ROOT
HETATM    1  C   LIG     1      16.433  35.964  21.295  1.00  0.00     0.044 A 
HETATM    2  C   LIG     1      16.017  36.891  22.251  1.00  0.00     0.067 A 
HETATM    3  S   LIG     1      17.134  38.145  22.286  1.00  0.00    -0.113 SA
HETATM    4  C   LIG     1      18.156  37.537  21.101  1.00  0.00     0.050 A 
HETATM    5  C   LIG     1      17.632  36.333  20.657  1.00  0.00     0.026 A 
ENDROOT
BRANCH   1   6
HETATM    6  C   LIG     1      15.707  34.715  20.971  1.00  0.00     0.176 C 
HETATM    7  O   LIG     1      14.855  34.264  21.781  1.00  0.00    -0.646 OA
BRANCH   6   8
HETATM    8  O   LIG     1      15.937  34.014  19.787  1.00  0.00    -0.773 OA
HETATM    9  H   LIG     1      16.859  33.723  19.492  1.00  0.00     0.167 HD
ENDBRANCH   6   8
ENDBRANCH   1   6
TORSDOF 2
ENDMDL
MODEL 16
REMARK VINA RESULT:      -4.0     12.207     12.919
REMARK  2 active torsions:
REMARK  status: ('A' for Active; 'I' for Inactive)
REMARK    1  A    between atoms: C_2  and  C_4 
REMARK    2  A    between atoms: C_2  and  O_3 
ROOT
HETATM    1  C   LIG     1      14.399  29.921  14.349  1.00  0.00     0.044 A 
HETATM    2  C   LIG     1      14.158  30.598  15.545  1.00  0.00     0.067 A 
HETATM    3  S   LIG     1      15.131  31.967  15.578  1.00  0.00    -0.113 SA
HETATM    4  C   LIG     1      15.869  31.725  14.090  1.00  0.00     0.050 A 
HETATM    5  C   LIG     1      15.359  30.558  13.541  1.00  0.00     0.026 A 
ENDROOT
BRANCH   1   6
HETATM    6  C   LIG     1      13.730  28.662  13.951  1.00  0.00     0.176 C 
HETATM    7  O   LIG     1      14.422  27.635  13.725  1.00  0.00    -0.646 OA
BRANCH   6   8
HETATM    8  O   LIG     1      12.345  28.573  13.818  1.00  0.00    -0.773 OA
HETATM    9  H   LIG     1      11.727  28.425  14.605  1.00  0.00     0.167 HD
ENDBRANCH   6   8
ENDBRANCH   1   6
TORSDOF 2
ENDMDL
MODEL 17
REMARK VINA RESULT:      -3.9     10.713     11.614
REMARK  2 active torsions:
REMARK  status: ('A' for Active; 'I' for Inactive)
REMARK    1  A    between atoms: C_2  and  C_4 
REMARK    2  A    between atoms: C_2  and  O_3 
ROOT
HETATM    1  C   LIG     1      16.505  32.568  13.990  1.00  0.00     0.044 A 
HETATM    2  C   LIG     1      15.778  31.475  13.518  1.00  0.00     0.067 A 
HETATM    3  S   LIG     1      14.837  30.888  14.780  1.00  0.00    -0.113 SA
HETATM    4  C   LIG     1      15.333  32.000  15.935  1.00  0.00     0.050 A 
HETATM    5  C   LIG     1      16.250  32.855  15.343  1.00  0.00     0.026 A 
ENDROOT
BRANCH   1   6
HETATM    6  C   LIG     1      17.452  33.357  13.170  1.00  0.00     0.176 C 
HETATM    7  O   LIG     1      17.525  34.604  13.334  1.00  0.00    -0.646 OA
BRANCH   6   8
HETATM    8  O   LIG     1      18.274  32.762  12.214  1.00  0.00    -0.773 OA
HETATM    9  H   LIG     1      18.093  32.825  11.221  1.00  0.00     0.167 HD
ENDBRANCH   6   8
ENDBRANCH   1   6
TORSDOF 2
ENDMDL
MODEL 18
REMARK VINA RESULT:      -3.8     12.272     13.275
REMARK  2 active torsions:
REMARK  status: ('A' for Active; 'I' for Inactive)
REMARK    1  A    between atoms: C_2  and  C_4 
REMARK    2  A    between atoms: C_2  and  O_3 
ROOT
HETATM    1  C   LIG     1      18.706  34.278  12.070  1.00  0.00     0.044 A 
HETATM    2  C   LIG     1      19.994  33.780  12.262  1.00  0.00     0.067 A 
HETATM    3  S   LIG     1      20.916  34.175  10.914  1.00  0.00    -0.113 SA
HETATM    4  C   LIG     1      19.706  34.977  10.071  1.00  0.00     0.050 A 
HETATM    5  C   LIG     1      18.553  34.947  10.841  1.00  0.00     0.026 A 
ENDROOT
BRANCH   1   6
HETATM    6  C   LIG     1      17.599  34.131  13.042  1.00  0.00     0.176 C 
HETATM    7  O   LIG     1      17.570  34.863  14.066  1.00  0.00    -0.646 OA
BRANCH   6   8
HETATM    8  O   LIG     1      16.577  33.200  12.861  1.00  0.00    -0.773 OA
HETATM    9  H   LIG     1      16.554  32.556  12.082  1.00  0.00     0.167 HD
ENDBRANCH   6   8
ENDBRANCH   1   6
TORSDOF 2
ENDMDL
MODEL 19
REMARK VINA RESULT:      -3.8     11.339     12.077
REMARK  2 active torsions:
REMARK  status: ('A' for Active; 'I' for Inactive)
REMARK    1  A    between atoms: C_2  and  C_4 
REMARK    2  A    between atoms: C_2  and  O_3 
ROOT
HETATM    1  C   LIG     1      14.815  30.910  14.576  1.00  0.00     0.044 A 
HETATM    2  C   LIG     1      15.553  31.205  13.429  1.00  0.00     0.067 A 
HETATM    3  S   LIG     1      16.585  32.482  13.784  1.00  0.00    -0.113 SA
HETATM    4  C   LIG     1      16.116  32.681  15.384  1.00  0.00     0.050 A 
HETATM    5  C   LIG     1      15.136  31.741  15.665  1.00  0.00     0.026 A 
ENDROOT
BRANCH   1   6
HETATM    6  C   LIG     1      13.795  29.840  14.661  1.00  0.00     0.176 C 
HETATM    7  O   LIG     1      13.983  28.753  14.055  1.00  0.00    -0.646 OA
BRANCH   6   8
HETATM    8  O   LIG     1      12.621  29.997  15.396  1.00  0.00    -0.773 OA
HETATM    9  H   LIG     1      11.886  29.302  15.411  1.00  0.00     0.167 HD
ENDBRANCH   6   8
ENDBRANCH   1   6
TORSDOF 2
ENDMDL
MODEL 20
REMARK VINA RESULT:      -3.3      5.718      6.565
REMARK  2 active torsions:
REMARK  status: ('A' for Active; 'I' for Inactive)
REMARK    1  A    between atoms: C_2  and  C_4 
REMARK    2  A    between atoms: C_2  and  O_3 
ROOT
HETATM    1  C   LIG     1      15.328  34.125  19.651  1.00  0.00     0.044 A 
HETATM    2  C   LIG     1      15.263  34.229  18.262  1.00  0.00     0.067 A 
HETATM    3  S   LIG     1      15.060  32.685  17.630  1.00  0.00    -0.113 SA
HETATM    4  C   LIG     1      15.053  31.867  19.095  1.00  0.00     0.050 A 
HETATM    5  C   LIG     1      15.210  32.800  20.109  1.00  0.00     0.026 A 
ENDROOT
BRANCH   1   6
HETATM    6  C   LIG     1      15.504  35.274  20.568  1.00  0.00     0.176 C 
HETATM    7  O   LIG     1      16.650  35.771  20.727  1.00  0.00    -0.646 OA
BRANCH   6   8
HETATM    8  O   LIG     1      14.434  35.831  21.267  1.00  0.00    -0.773 OA
HETATM    9  H   LIG     1      13.748  35.271  21.755  1.00  0.00     0.167 HD
ENDBRANCH   6   8
ENDBRANCH   1   6
TORSDOF 2
ENDMDL
