REMARK  2 active torsions:
REMARK  status: ('A' for Active; 'I' for Inactive)
REMARK    1  A    between atoms: C_2  and  C_4 
REMARK    2  A    between atoms: C_2  and  O_3 
ROOT
HETATM    1  C   LIG     1      -0.173  -0.045  -0.013  1.00  0.00     0.044 A 
HETATM    2  C   LIG     1       0.380   0.999   0.729  1.00  0.00     0.067 A 
HETATM    3  S   LIG     1       2.044   0.982   0.498  1.00  0.00    -0.113 SA
HETATM    4  C   LIG     1       2.090  -0.339  -0.537  1.00  0.00     0.050 A 
HETATM    5  C   LIG     1       0.791  -0.789  -0.718  1.00  0.00     0.026 A 
ENDROOT
BRANCH   1   6
HETATM    6  C   LIG     1      -1.619  -0.357  -0.067  1.00  0.00     0.176 C 
HETATM    7  O   LIG     1      -2.020  -1.324  -0.767  1.00  0.00    -0.646 OA
BRANCH   6   8
HETATM    8  O   LIG     1      -2.562   0.390   0.638  1.00  0.00    -0.773 OA
HETATM    9  H   LIG     1      -2.313   1.178   1.220  1.00  0.00     0.167 HD
ENDBRANCH   6   8
ENDBRANCH   1   6
TORSDOF 2
