MODEL 1
REMARK VINA RESULT:      -6.8      0.000      0.000
REMARK  2 active torsions:
REMARK  status: ('A' for Active; 'I' for Inactive)
REMARK    1  A    between atoms: O_1  and  C_2 
REMARK    2  A    between atoms: C_2  and  C_3 
ROOT
HETATM    1  C   LIG     1      17.191  37.306  24.153  1.00  0.00     0.054 A 
HETATM    2  C   LIG     1      17.660  37.629  25.441  1.00  0.00     0.019 A 
HETATM    3  C   LIG     1      17.991  36.626  26.355  1.00  0.00     0.001 A 
HETATM    4  C   LIG     1      17.866  35.285  25.997  1.00  0.00     0.001 A 
HETATM    5  C   LIG     1      17.416  34.944  24.722  1.00  0.00     0.019 A 
HETATM    6  C   LIG     1      17.080  35.937  23.792  1.00  0.00     0.023 A 
HETATM    7  I   LIG     1      16.504  35.249  21.864  1.00  0.00    -0.043 I 
ENDROOT
BRANCH   1   8
HETATM    8  C   LIG     1      16.836  38.415  23.236  1.00  0.00     0.177 C 
HETATM    9  O   LIG     1      17.725  39.063  22.626  1.00  0.00    -0.646 OA
BRANCH   8  10
HETATM   10  O   LIG     1      15.497  38.725  23.009  1.00  0.00    -0.773 OA
HETATM   11  H   LIG     1      14.919  39.107  23.747  1.00  0.00     0.167 HD
ENDBRANCH   8  10
ENDBRANCH   1   8
TORSDOF 2
ENDMDL
MODEL 2
REMARK VINA RESULT:      -6.8      2.619      3.882
REMARK  2 active torsions:
REMARK  status: ('A' for Active; 'I' for Inactive)
REMARK    1  A    between atoms: O_1  and  C_2 
REMARK    2  A    between atoms: C_2  and  C_3 
ROOT
HETATM    1  C   LIG     1      17.444  38.129  21.960  1.00  0.00     0.054 A 
HETATM    2  C   LIG     1      18.248  39.227  21.597  1.00  0.00     0.019 A 
HETATM    3  C   LIG     1      19.134  39.140  20.520  1.00  0.00     0.001 A 
HETATM    4  C   LIG     1      19.226  37.960  19.784  1.00  0.00     0.001 A 
HETATM    5  C   LIG     1      18.428  36.866  20.120  1.00  0.00     0.019 A 
HETATM    6  C   LIG     1      17.534  36.935  21.196  1.00  0.00     0.023 A 
HETATM    7  I   LIG     1      16.325  35.215  21.514  1.00  0.00    -0.043 I 
ENDROOT
BRANCH   1   8
HETATM    8  C   LIG     1      16.540  38.276  23.126  1.00  0.00     0.177 C 
HETATM    9  O   LIG     1      16.998  38.372  24.295  1.00  0.00    -0.646 OA
BRANCH   8  10
HETATM   10  O   LIG     1      15.163  38.350  22.930  1.00  0.00    -0.773 OA
HETATM   11  H   LIG     1      14.677  39.236  22.984  1.00  0.00     0.167 HD
ENDBRANCH   8  10
ENDBRANCH   1   8
TORSDOF 2
ENDMDL
MODEL 3
REMARK VINA RESULT:      -6.2      2.181      2.806
REMARK  2 active torsions:
REMARK  status: ('A' for Active; 'I' for Inactive)
REMARK    1  A    between atoms: O_1  and  C_2 
REMARK    2  A    between atoms: C_2  and  C_3 
ROOT
HETATM    1  C   LIG     1      17.156  35.779  23.755  1.00  0.00     0.054 A 
HETATM    2  C   LIG     1      17.346  34.827  24.774  1.00  0.00     0.019 A 
HETATM    3  C   LIG     1      17.766  35.216  26.048  1.00  0.00     0.001 A 
HETATM    4  C   LIG     1      17.995  36.563  26.327  1.00  0.00     0.001 A 
HETATM    5  C   LIG     1      17.800  37.523  25.335  1.00  0.00     0.019 A 
HETATM    6  C   LIG     1      17.379  37.150  24.051  1.00  0.00     0.023 A 
HETATM    7  I   LIG     1      17.036  38.743  22.685  1.00  0.00    -0.043 I 
ENDROOT
BRANCH   1   8
HETATM    8  C   LIG     1      16.731  35.301  22.417  1.00  0.00     0.177 C 
HETATM    9  O   LIG     1      17.510  35.356  21.430  1.00  0.00    -0.646 OA
BRANCH   8  10
HETATM   10  O   LIG     1      15.466  34.744  22.250  1.00  0.00    -0.773 OA
HETATM   11  H   LIG     1      14.900  34.971  21.442  1.00  0.00     0.167 HD
ENDBRANCH   8  10
ENDBRANCH   1   8
TORSDOF 2
ENDMDL
MODEL 4
REMARK VINA RESULT:      -6.1      3.911      5.095
REMARK  2 active torsions:
REMARK  status: ('A' for Active; 'I' for Inactive)
REMARK    1  A    between atoms: O_1  and  C_2 
REMARK    2  A    between atoms: C_2  and  C_3 
ROOT
HETATM    1  C   LIG     1      17.943  36.884  20.659  1.00  0.00     0.054 A 
HETATM    2  C   LIG     1      18.925  36.889  19.650  1.00  0.00     0.019 A 
HETATM    3  C   LIG     1      19.729  38.011  19.440  1.00  0.00     0.001 A 
HETATM    4  C   LIG     1      19.572  39.143  20.238  1.00  0.00     0.001 A 
HETATM    5  C   LIG     1      18.614  39.153  21.252  1.00  0.00     0.019 A 
HETATM    6  C   LIG     1      17.798  38.036  21.476  1.00  0.00     0.023 A 
HETATM    7  I   LIG     1      16.457  38.180  23.120  1.00  0.00    -0.043 I 
ENDROOT
BRANCH   1   8
HETATM    8  C   LIG     1      17.105  35.671  20.819  1.00  0.00     0.177 C 
HETATM    9  O   LIG     1      16.327  35.294  19.904  1.00  0.00    -0.646 OA
BRANCH   8  10
HETATM   10  O   LIG     1      17.205  34.907  21.979  1.00  0.00    -0.773 OA
HETATM   11  H   LIG     1      16.859  35.257  22.863  1.00  0.00     0.167 HD
ENDBRANCH   8  10
ENDBRANCH   1   8
TORSDOF 2
ENDMDL
MODEL 5
REMARK VINA RESULT:      -5.9      9.206     10.259
REMARK  2 active torsions:
REMARK  status: ('A' for Active; 'I' for Inactive)
REMARK    1  A    between atoms: O_1  and  C_2 
REMARK    2  A    between atoms: C_2  and  C_3 
ROOT
HETATM    1  C   LIG     1      14.805  32.175  16.184  1.00  0.00     0.054 A 
HETATM    2  C   LIG     1      13.724  31.294  16.374  1.00  0.00     0.019 A 
HETATM    3  C   LIG     1      13.480  30.255  15.472  1.00  0.00     0.001 A 
HETATM    4  C   LIG     1      14.316  30.076  14.371  1.00  0.00     0.001 A 
HETATM    5  C   LIG     1      15.400  30.930  14.173  1.00  0.00     0.019 A 
HETATM    6  C   LIG     1      15.660  31.977  15.068  1.00  0.00     0.023 A 
HETATM    7  I   LIG     1      17.405  33.126  14.674  1.00  0.00    -0.043 I 
ENDROOT
BRANCH   1   8
HETATM    8  C   LIG     1      14.999  33.271  17.164  1.00  0.00     0.177 C 
HETATM    9  O   LIG     1      15.544  33.058  18.278  1.00  0.00    -0.646 OA
BRANCH   8  10
HETATM   10  O   LIG     1      14.609  34.568  16.839  1.00  0.00    -0.773 OA
HETATM   11  H   LIG     1      13.764  34.741  16.310  1.00  0.00     0.167 HD
ENDBRANCH   8  10
ENDBRANCH   1   8
TORSDOF 2
ENDMDL
MODEL 6
REMARK VINA RESULT:      -5.8      3.544      4.322
REMARK  2 active torsions:
REMARK  status: ('A' for Active; 'I' for Inactive)
REMARK    1  A    between atoms: O_1  and  C_2 
REMARK    2  A    between atoms: C_2  and  C_3 
ROOT
HETATM    1  C   LIG     1      18.276  37.504  20.617  1.00  0.00     0.054 A 
HETATM    2  C   LIG     1      18.822  38.767  20.915  1.00  0.00     0.019 A 
HETATM    3  C   LIG     1      18.331  39.525  21.981  1.00  0.00     0.001 A 
HETATM    4  C   LIG     1      17.294  39.032  22.770  1.00  0.00     0.001 A 
HETATM    5  C   LIG     1      16.749  37.777  22.500  1.00  0.00     0.019 A 
HETATM    6  C   LIG     1      17.229  37.003  21.435  1.00  0.00     0.023 A 
HETATM    7  I   LIG     1      16.357  35.076  21.219  1.00  0.00    -0.043 I 
ENDROOT
BRANCH   1   8
HETATM    8  C   LIG     1      18.825  36.757  19.460  1.00  0.00     0.177 C 
HETATM    9  O   LIG     1      19.965  36.224  19.512  1.00  0.00    -0.646 OA
BRANCH   8  10
HETATM   10  O   LIG     1      18.058  36.602  18.308  1.00  0.00    -0.773 OA
HETATM   11  H   LIG     1      18.357  35.986  17.563  1.00  0.00     0.167 HD
ENDBRANCH   8  10
ENDBRANCH   1   8
TORSDOF 2
ENDMDL
MODEL 7
REMARK VINA RESULT:      -5.4     10.072     11.098
REMARK  2 active torsions:
REMARK  status: ('A' for Active; 'I' for Inactive)
REMARK    1  A    between atoms: O_1  and  C_2 
REMARK    2  A    between atoms: C_2  and  C_3 
ROOT
HETATM    1  C   LIG     1      15.652  31.727  14.726  1.00  0.00     0.054 A 
HETATM    2  C   LIG     1      15.404  30.631  13.879  1.00  0.00     0.019 A 
HETATM    3  C   LIG     1      14.345  29.756  14.131  1.00  0.00     0.001 A 
HETATM    4  C   LIG     1      13.512  29.965  15.229  1.00  0.00     0.001 A 
HETATM    5  C   LIG     1      13.732  31.054  16.073  1.00  0.00     0.019 A 
HETATM    6  C   LIG     1      14.790  31.941  15.834  1.00  0.00     0.023 A 
HETATM    7  I   LIG     1      14.929  33.599  17.158  1.00  0.00    -0.043 I 
ENDROOT
BRANCH   1   8
HETATM    8  C   LIG     1      16.804  32.607  14.418  1.00  0.00     0.177 C 
HETATM    9  O   LIG     1      16.748  33.449  13.484  1.00  0.00    -0.646 OA
BRANCH   8  10
HETATM   10  O   LIG     1      17.958  32.535  15.195  1.00  0.00    -0.773 OA
HETATM   11  H   LIG     1      18.547  33.348  15.328  1.00  0.00     0.167 HD
ENDBRANCH   8  10
ENDBRANCH   1   8
TORSDOF 2
ENDMDL
MODEL 8
REMARK VINA RESULT:      -5.0      9.545     10.488
REMARK  2 active torsions:
REMARK  status: ('A' for Active; 'I' for Inactive)
REMARK    1  A    between atoms: O_1  and  C_2 
REMARK    2  A    between atoms: C_2  and  C_3 
ROOT
HETATM    1  C   LIG     1      14.694  31.908  16.161  1.00  0.00     0.054 A 
HETATM    2  C   LIG     1      15.543  33.022  16.309  1.00  0.00     0.019 A 
HETATM    3  C   LIG     1      16.499  33.326  15.338  1.00  0.00     0.001 A 
HETATM    4  C   LIG     1      16.619  32.528  14.201  1.00  0.00     0.001 A 
HETATM    5  C   LIG     1      15.778  31.429  14.030  1.00  0.00     0.019 A 
HETATM    6  C   LIG     1      14.813  31.109  14.994  1.00  0.00     0.023 A 
HETATM    7  I   LIG     1      13.551  29.461  14.535  1.00  0.00    -0.043 I 
ENDROOT
BRANCH   1   8
HETATM    8  C   LIG     1      13.714  31.624  17.237  1.00  0.00     0.177 C 
HETATM    9  O   LIG     1      14.081  31.145  18.341  1.00  0.00    -0.646 OA
BRANCH   8  10
HETATM   10  O   LIG     1      12.368  31.928  17.046  1.00  0.00    -0.773 OA
HETATM   11  H   LIG     1      11.642  31.313  17.392  1.00  0.00     0.167 HD
ENDBRANCH   8  10
ENDBRANCH   1   8
TORSDOF 2
ENDMDL
MODEL 9
REMARK VINA RESULT:      -4.9     10.518     11.468
REMARK  2 active torsions:
REMARK  status: ('A' for Active; 'I' for Inactive)
REMARK    1  A    between atoms: O_1  and  C_2 
REMARK    2  A    between atoms: C_2  and  C_3 
ROOT
HETATM    1  C   LIG     1      14.750  30.859  14.794  1.00  0.00     0.054 A 
HETATM    2  C   LIG     1      13.519  30.335  15.235  1.00  0.00     0.019 A 
HETATM    3  C   LIG     1      12.894  30.840  16.377  1.00  0.00     0.001 A 
HETATM    4  C   LIG     1      13.483  31.881  17.094  1.00  0.00     0.001 A 
HETATM    5  C   LIG     1      14.695  32.423  16.665  1.00  0.00     0.019 A 
HETATM    6  C   LIG     1      15.335  31.928  15.521  1.00  0.00     0.023 A 
HETATM    7  I   LIG     1      17.124  32.927  14.952  1.00  0.00    -0.043 I 
ENDROOT
BRANCH   1   8
HETATM    8  C   LIG     1      15.374  30.265  13.587  1.00  0.00     0.177 C 
HETATM    9  O   LIG     1      16.081  30.961  12.812  1.00  0.00    -0.646 OA
BRANCH   8  10
HETATM   10  O   LIG     1      15.213  28.908  13.320  1.00  0.00    -0.773 OA
HETATM   11  H   LIG     1      15.938  28.381  12.849  1.00  0.00     0.167 HD
ENDBRANCH   8  10
ENDBRANCH   1   8
TORSDOF 2
ENDMDL
MODEL 10
REMARK VINA RESULT:      -4.9     10.146     11.290
REMARK  2 active torsions:
REMARK  status: ('A' for Active; 'I' for Inactive)
REMARK    1  A    between atoms: O_1  and  C_2 
REMARK    2  A    between atoms: C_2  and  C_3 
ROOT
HETATM    1  C   LIG     1      13.920  31.028  15.774  1.00  0.00     0.054 A 
HETATM    2  C   LIG     1      13.227  29.889  15.319  1.00  0.00     0.019 A 
HETATM    3  C   LIG     1      13.709  29.141  14.243  1.00  0.00     0.001 A 
HETATM    4  C   LIG     1      14.893  29.513  13.607  1.00  0.00     0.001 A 
HETATM    5  C   LIG     1      15.600  30.630  14.051  1.00  0.00     0.019 A 
HETATM    6  C   LIG     1      15.132  31.391  15.130  1.00  0.00     0.023 A 
HETATM    7  I   LIG     1      16.377  33.003  15.741  1.00  0.00    -0.043 I 
ENDROOT
BRANCH   1   8
HETATM    8  C   LIG     1      13.346  31.793  16.907  1.00  0.00     0.177 C 
HETATM    9  O   LIG     1      12.404  32.609  16.729  1.00  0.00    -0.646 OA
BRANCH   8  10
HETATM   10  O   LIG     1      13.823  31.582  18.198  1.00  0.00    -0.773 OA
HETATM   11  H   LIG     1      13.214  31.680  19.000  1.00  0.00     0.167 HD
ENDBRANCH   8  10
ENDBRANCH   1   8
TORSDOF 2
ENDMDL
MODEL 11
REMARK VINA RESULT:      -4.7      3.594      4.201
REMARK  2 active torsions:
REMARK  status: ('A' for Active; 'I' for Inactive)
REMARK    1  A    between atoms: O_1  and  C_2 
REMARK    2  A    between atoms: C_2  and  C_3 
ROOT
HETATM    1  C   LIG     1      16.624  36.630  21.453  1.00  0.00     0.054 A 
HETATM    2  C   LIG     1      15.766  37.014  22.501  1.00  0.00     0.019 A 
HETATM    3  C   LIG     1      15.994  38.191  23.218  1.00  0.00     0.001 A 
HETATM    4  C   LIG     1      17.077  39.007  22.896  1.00  0.00     0.001 A 
HETATM    5  C   LIG     1      17.931  38.651  21.852  1.00  0.00     0.019 A 
HETATM    6  C   LIG     1      17.717  37.474  21.122  1.00  0.00     0.023 A 
HETATM    7  I   LIG     1      19.052  37.127  19.504  1.00  0.00    -0.043 I 
ENDROOT
BRANCH   1   8
HETATM    8  C   LIG     1      16.341  35.359  20.744  1.00  0.00     0.177 C 
HETATM    9  O   LIG     1      15.777  35.354  19.619  1.00  0.00    -0.646 OA
BRANCH   8  10
HETATM   10  O   LIG     1      16.738  34.149  21.307  1.00  0.00    -0.773 OA
HETATM   11  H   LIG     1      16.384  33.269  20.953  1.00  0.00     0.167 HD
ENDBRANCH   8  10
ENDBRANCH   1   8
TORSDOF 2
ENDMDL
MODEL 12
REMARK VINA RESULT:      -4.5      2.525      3.514
REMARK  2 active torsions:
REMARK  status: ('A' for Active; 'I' for Inactive)
REMARK    1  A    between atoms: O_1  and  C_2 
REMARK    2  A    between atoms: C_2  and  C_3 
ROOT
HETATM    1  C   LIG     1      16.917  36.879  22.472  1.00  0.00     0.054 A 
HETATM    2  C   LIG     1      17.211  38.002  21.676  1.00  0.00     0.019 A 
HETATM    3  C   LIG     1      17.960  39.065  22.186  1.00  0.00     0.001 A 
HETATM    4  C   LIG     1      18.435  39.020  23.496  1.00  0.00     0.001 A 
HETATM    5  C   LIG     1      18.167  37.909  24.296  1.00  0.00     0.019 A 
HETATM    6  C   LIG     1      17.417  36.835  23.801  1.00  0.00     0.023 A 
HETATM    7  I   LIG     1      17.179  35.181  25.116  1.00  0.00    -0.043 I 
ENDROOT
BRANCH   1   8
HETATM    8  C   LIG     1      16.099  35.793  21.881  1.00  0.00     0.177 C 
HETATM    9  O   LIG     1      16.620  34.701  21.536  1.00  0.00    -0.646 OA
BRANCH   8  10
HETATM   10  O   LIG     1      14.724  35.961  21.738  1.00  0.00    -0.773 OA
HETATM   11  H   LIG     1      14.074  35.471  22.341  1.00  0.00     0.167 HD
ENDBRANCH   8  10
ENDBRANCH   1   8
TORSDOF 2
ENDMDL
MODEL 13
REMARK VINA RESULT:      -4.1     12.361     13.333
REMARK  2 active torsions:
REMARK  status: ('A' for Active; 'I' for Inactive)
REMARK    1  A    between atoms: O_1  and  C_2 
REMARK    2  A    between atoms: C_2  and  C_3 
ROOT
HETATM    1  C   LIG     1      13.412  29.100  14.267  1.00  0.00     0.054 A 
HETATM    2  C   LIG     1      12.916  30.154  15.057  1.00  0.00     0.019 A 
HETATM    3  C   LIG     1      13.777  31.121  15.582  1.00  0.00     0.001 A 
HETATM    4  C   LIG     1      15.144  31.055  15.320  1.00  0.00     0.001 A 
HETATM    5  C   LIG     1      15.653  30.026  14.528  1.00  0.00     0.019 A 
HETATM    6  C   LIG     1      14.804  29.048  13.993  1.00  0.00     0.023 A 
HETATM    7  I   LIG     1      15.725  27.606  12.731  1.00  0.00    -0.043 I 
ENDROOT
BRANCH   1   8
HETATM    8  C   LIG     1      12.451  28.092  13.757  1.00  0.00     0.177 C 
HETATM    9  O   LIG     1      12.612  26.865  13.987  1.00  0.00    -0.646 OA
BRANCH   8  10
HETATM   10  O   LIG     1      11.327  28.504  13.045  1.00  0.00    -0.773 OA
HETATM   11  H   LIG     1      10.583  29.020  13.500  1.00  0.00     0.167 HD
ENDBRANCH   8  10
ENDBRANCH   1   8
TORSDOF 2
ENDMDL
MODEL 14
REMARK VINA RESULT:      -3.8     19.955     21.025
REMARK  2 active torsions:
REMARK  status: ('A' for Active; 'I' for Inactive)
REMARK    1  A    between atoms: O_1  and  C_2 
REMARK    2  A    between atoms: C_2  and  C_3 
ROOT
HETATM    1  C   LIG     1      15.525  18.663  14.864  1.00  0.00     0.054 A 
HETATM    2  C   LIG     1      14.335  18.750  15.610  1.00  0.00     0.019 A 
HETATM    3  C   LIG     1      13.102  18.444  15.030  1.00  0.00     0.001 A 
HETATM    4  C   LIG     1      13.038  18.039  13.697  1.00  0.00     0.001 A 
HETATM    5  C   LIG     1      14.208  17.934  12.945  1.00  0.00     0.019 A 
HETATM    6  C   LIG     1      15.453  18.237  13.511  1.00  0.00     0.023 A 
HETATM    7  I   LIG     1      17.144  17.933  12.258  1.00  0.00    -0.043 I 
ENDROOT
BRANCH   1   8
HETATM    8  C   LIG     1      16.800  19.023  15.530  1.00  0.00     0.177 C 
HETATM    9  O   LIG     1      17.554  18.137  16.012  1.00  0.00    -0.646 OA
BRANCH   8  10
HETATM   10  O   LIG     1      17.198  20.356  15.593  1.00  0.00    -0.773 OA
HETATM   11  H   LIG     1      17.948  20.703  15.008  1.00  0.00     0.167 HD
ENDBRANCH   8  10
ENDBRANCH   1   8
TORSDOF 2
ENDMDL
