REMARK  2 active torsions:
REMARK  status: ('A' for Active; 'I' for Inactive)
REMARK    1  A    between atoms: O_1  and  C_2 
REMARK    2  A    between atoms: C_2  and  C_3 
ROOT
HETATM    1  C   LIG     1       0.574  -0.068   0.127  1.00  0.00     0.054 A 
HETATM    2  C   LIG     1      -0.246  -1.041  -0.476  1.00  0.00     0.019 A 
HETATM    3  C   LIG     1      -1.613  -0.815  -0.653  1.00  0.00     0.001 A 
HETATM    4  C   LIG     1      -2.182   0.388  -0.238  1.00  0.00     0.001 A 
HETATM    5  C   LIG     1      -1.384   1.370   0.349  1.00  0.00     0.019 A 
HETATM    6  C   LIG     1      -0.011   1.160   0.534  1.00  0.00     0.023 A 
HETATM    7  I   LIG     1       1.077   2.792   1.355  1.00  0.00    -0.043 I 
ENDROOT
BRANCH   1   8
HETATM    8  C   LIG     1       2.013  -0.376   0.307  1.00  0.00     0.177 C 
HETATM    9  O   LIG     1       2.692   0.192   1.202  1.00  0.00    -0.646 OA
BRANCH   8  10
HETATM   10  O   LIG     1       2.622  -1.337  -0.496  1.00  0.00    -0.773 OA
HETATM   11  H   LIG     1       3.600  -1.570  -0.378  1.00  0.00     0.167 HD
ENDBRANCH   8  10
ENDBRANCH   1   8
TORSDOF 2
