REMARK  4 active torsions:
REMARK  status: ('A' for Active; 'I' for Inactive)
REMARK    1  A    between atoms: O_1  and  C_2 
REMARK    2  A    between atoms: C_2  and  C_3 
REMARK    3  A    between atoms: C_8  and  C_9 
REMARK    4  A    between atoms: C_9  and  O_10 
ROOT
HETATM    1  C   LIG     1      -0.429   0.570  -0.298  1.00  0.00     0.054 A 
HETATM    2  C   LIG     1      -0.221   1.598   0.638  1.00  0.00     0.019 A 
HETATM    3  C   LIG     1       0.674   1.431   1.695  1.00  0.00     0.001 A 
HETATM    4  C   LIG     1       1.379   0.238   1.831  1.00  0.00     0.001 A 
HETATM    5  C   LIG     1       1.179  -0.801   0.920  1.00  0.00     0.019 A 
HETATM    6  C   LIG     1       0.267  -0.662  -0.142  1.00  0.00     0.054 A 
ENDROOT
BRANCH   1   7
HETATM    7  C   LIG     1      -1.310   0.848  -1.455  1.00  0.00     0.177 C 
HETATM    8  O   LIG     1      -0.962   0.499  -2.614  1.00  0.00    -0.646 OA
BRANCH   7   9
HETATM    9  O   LIG     1      -2.511   1.534  -1.290  1.00  0.00    -0.773 OA
HETATM   10  H   LIG     1      -2.848   1.804  -0.373  1.00  0.00     0.167 HD
ENDBRANCH   7   9
ENDBRANCH   1   7
BRANCH   6  11
HETATM   11  C   LIG     1       0.033  -1.837  -1.016  1.00  0.00     0.177 C 
HETATM   12  O   LIG     1      -1.090  -2.024  -1.558  1.00  0.00    -0.646 OA
BRANCH  11  13
HETATM   13  O   LIG     1       1.044  -2.775  -1.204  1.00  0.00    -0.773 OA
HETATM   14  H   LIG     1       0.894  -3.592  -1.784  1.00  0.00     0.167 HD
ENDBRANCH  11  13
ENDBRANCH   6  11
TORSDOF 4
