REMARK  2 active torsions:
REMARK  status: ('A' for Active; 'I' for Inactive)
REMARK       I    between atoms: N_1  and  C_2 
REMARK    1  A    between atoms: C_2  and  C_3 
REMARK    2  A    between atoms: C_8  and  C_9 
REMARK       I    between atoms: C_9  and  N_10 
ROOT
HETATM    1  C   LIG     1      -0.714   0.095  -0.292  1.00  0.00     0.047 A 
HETATM    2  C   LIG     1      -1.210   1.390  -0.059  1.00  0.00     0.018 A 
HETATM    3  C   LIG     1      -0.340   2.466   0.119  1.00  0.00     0.001 A 
HETATM    4  C   LIG     1       1.038   2.264   0.079  1.00  0.00     0.001 A 
HETATM    5  C   LIG     1       1.552   0.986  -0.139  1.00  0.00     0.018 A 
HETATM    6  C   LIG     1       0.693  -0.111  -0.333  1.00  0.00     0.047 A 
ENDROOT
BRANCH   1   7
HETATM    7  C   LIG     1      -1.692  -1.008  -0.425  1.00  0.00     0.250 C 
HETATM    8  N   LIG     1      -2.746  -1.155   0.528  1.00  0.00    -0.366 N 
HETATM    9  H   LIG     1      -3.457  -1.911   0.413  1.00  0.00     0.159 HD
HETATM   10  H   LIG     1      -2.805  -0.530   1.363  1.00  0.00     0.159 HD
HETATM   11  O   LIG     1      -1.634  -1.797  -1.405  1.00  0.00    -0.268 OA
ENDBRANCH   1   7
BRANCH   6  12
HETATM   12  C   LIG     1       1.305  -1.447  -0.513  1.00  0.00     0.250 C 
HETATM   13  N   LIG     1       2.326  -1.897   0.380  1.00  0.00    -0.366 N 
HETATM   14  H   LIG     1       2.608  -1.323   1.204  1.00  0.00     0.159 HD
HETATM   15  H   LIG     1       2.783  -2.824   0.231  1.00  0.00     0.159 HD
HETATM   16  O   LIG     1       0.968  -2.178  -1.481  1.00  0.00    -0.268 OA
ENDBRANCH   6  12
TORSDOF 2
