MODEL 1
REMARK VINA RESULT:      -6.9      0.000      0.000
REMARK  4 active torsions:
REMARK  status: ('A' for Active; 'I' for Inactive)
REMARK    1  A    between atoms: O_1  and  C_2 
REMARK    2  A    between atoms: C_2  and  C_3 
REMARK    3  A    between atoms: C_8  and  C_9 
REMARK    4  A    between atoms: C_9  and  O_10 
ROOT
HETATM    1  C   LIG     1      17.557  38.236  21.954  1.00  0.00     0.054 A 
HETATM    2  C   LIG     1      18.447  39.254  21.571  1.00  0.00     0.019 A 
HETATM    3  C   LIG     1      19.290  39.090  20.471  1.00  0.00     0.001 A 
HETATM    4  C   LIG     1      19.253  37.910  19.733  1.00  0.00     0.001 A 
HETATM    5  C   LIG     1      18.385  36.880  20.103  1.00  0.00     0.019 A 
HETATM    6  C   LIG     1      17.541  37.016  21.220  1.00  0.00     0.054 A 
ENDROOT
BRANCH   1   7
HETATM    7  C   LIG     1      16.616  38.513  23.063  1.00  0.00     0.177 C 
HETATM    8  O   LIG     1      17.050  38.691  24.232  1.00  0.00    -0.646 OA
BRANCH   7   9
HETATM    9  O   LIG     1      15.241  38.538  22.844  1.00  0.00    -0.773 OA
HETATM   10  H   LIG     1      14.709  37.687  22.699  1.00  0.00     0.167 HD
ENDBRANCH   7   9
ENDBRANCH   1   7
BRANCH   6  11
HETATM   11  C   LIG     1      16.714  35.850  21.613  1.00  0.00     0.177 C 
HETATM   12  O   LIG     1      17.226  34.872  22.222  1.00  0.00    -0.646 OA
BRANCH  11  13
HETATM   13  O   LIG     1      15.367  35.804  21.264  1.00  0.00    -0.773 OA
HETATM   14  H   LIG     1      14.983  35.003  20.776  1.00  0.00     0.167 HD
ENDBRANCH  11  13
ENDBRANCH   6  11
TORSDOF 4
ENDMDL
MODEL 2
REMARK VINA RESULT:      -6.9      0.029      2.874
REMARK  4 active torsions:
REMARK  status: ('A' for Active; 'I' for Inactive)
REMARK    1  A    between atoms: O_1  and  C_2 
REMARK    2  A    between atoms: C_2  and  C_3 
REMARK    3  A    between atoms: C_8  and  C_9 
REMARK    4  A    between atoms: C_9  and  O_10 
ROOT
HETATM    1  C   LIG     1      17.527  37.014  21.210  1.00  0.00     0.054 A 
HETATM    2  C   LIG     1      18.376  36.862  20.100  1.00  0.00     0.019 A 
HETATM    3  C   LIG     1      19.256  37.880  19.729  1.00  0.00     0.001 A 
HETATM    4  C   LIG     1      19.305  39.062  20.463  1.00  0.00     0.001 A 
HETATM    5  C   LIG     1      18.462  39.240  21.561  1.00  0.00     0.019 A 
HETATM    6  C   LIG     1      17.553  38.235  21.942  1.00  0.00     0.054 A 
ENDROOT
BRANCH   1   7
HETATM    7  C   LIG     1      16.695  35.859  21.615  1.00  0.00     0.177 C 
HETATM    8  O   LIG     1      17.219  34.878  22.206  1.00  0.00    -0.646 OA
BRANCH   7   9
HETATM    9  O   LIG     1      15.336  35.816  21.313  1.00  0.00    -0.773 OA
HETATM   10  H   LIG     1      14.832  34.939  21.250  1.00  0.00     0.167 HD
ENDBRANCH   7   9
ENDBRANCH   1   7
BRANCH   6  11
HETATM   11  C   LIG     1      16.622  38.526  23.058  1.00  0.00     0.177 C 
HETATM   12  O   LIG     1      17.052  38.682  24.233  1.00  0.00    -0.646 OA
BRANCH  11  13
HETATM   13  O   LIG     1      15.251  38.580  22.823  1.00  0.00    -0.773 OA
HETATM   14  H   LIG     1      14.861  38.257  21.946  1.00  0.00     0.167 HD
ENDBRANCH  11  13
ENDBRANCH   6  11
TORSDOF 4
ENDMDL
MODEL 3
REMARK VINA RESULT:      -6.7      2.520      4.660
REMARK  4 active torsions:
REMARK  status: ('A' for Active; 'I' for Inactive)
REMARK    1  A    between atoms: O_1  and  C_2 
REMARK    2  A    between atoms: C_2  and  C_3 
REMARK    3  A    between atoms: C_8  and  C_9 
REMARK    4  A    between atoms: C_9  and  O_10 
ROOT
HETATM    1  C   LIG     1      17.149  36.017  23.798  1.00  0.00     0.054 A 
HETATM    2  C   LIG     1      17.310  34.934  24.680  1.00  0.00     0.019 A 
HETATM    3  C   LIG     1      17.771  35.136  25.981  1.00  0.00     0.001 A 
HETATM    4  C   LIG     1      18.074  36.421  26.423  1.00  0.00     0.001 A 
HETATM    5  C   LIG     1      17.933  37.509  25.560  1.00  0.00     0.019 A 
HETATM    6  C   LIG     1      17.488  37.327  24.238  1.00  0.00     0.054 A 
ENDROOT
BRANCH   1   7
HETATM    7  C   LIG     1      16.555  35.751  22.468  1.00  0.00     0.177 C 
HETATM    8  O   LIG     1      17.097  34.924  21.687  1.00  0.00    -0.646 OA
BRANCH   7   9
HETATM    9  O   LIG     1      15.420  36.436  22.042  1.00  0.00    -0.773 OA
HETATM   10  H   LIG     1      14.661  35.964  21.563  1.00  0.00     0.167 HD
ENDBRANCH   7   9
ENDBRANCH   1   7
BRANCH   6  11
HETATM   11  C   LIG     1      17.452  38.512  23.347  1.00  0.00     0.177 C 
HETATM   12  O   LIG     1      16.384  39.162  23.181  1.00  0.00    -0.646 OA
BRANCH  11  13
HETATM   13  O   LIG     1      18.593  38.887  22.644  1.00  0.00    -0.773 OA
HETATM   14  H   LIG     1      18.652  39.793  22.193  1.00  0.00     0.167 HD
ENDBRANCH  11  13
ENDBRANCH   6  11
TORSDOF 4
ENDMDL
MODEL 4
REMARK VINA RESULT:      -6.7      2.514      3.733
REMARK  4 active torsions:
REMARK  status: ('A' for Active; 'I' for Inactive)
REMARK    1  A    between atoms: O_1  and  C_2 
REMARK    2  A    between atoms: C_2  and  C_3 
REMARK    3  A    between atoms: C_8  and  C_9 
REMARK    4  A    between atoms: C_9  and  O_10 
ROOT
HETATM    1  C   LIG     1      17.476  37.334  24.235  1.00  0.00     0.054 A 
HETATM    2  C   LIG     1      17.928  37.518  25.553  1.00  0.00     0.019 A 
HETATM    3  C   LIG     1      18.075  36.431  26.415  1.00  0.00     0.001 A 
HETATM    4  C   LIG     1      17.779  35.144  25.973  1.00  0.00     0.001 A 
HETATM    5  C   LIG     1      17.317  34.940  24.672  1.00  0.00     0.019 A 
HETATM    6  C   LIG     1      17.142  36.023  23.791  1.00  0.00     0.054 A 
ENDROOT
BRANCH   1   7
HETATM    7  C   LIG     1      17.442  38.513  23.339  1.00  0.00     0.177 C 
HETATM    8  O   LIG     1      16.375  39.165  23.190  1.00  0.00    -0.646 OA
BRANCH   7   9
HETATM    9  O   LIG     1      18.571  38.892  22.615  1.00  0.00    -0.773 OA
HETATM   10  H   LIG     1      19.259  38.215  22.308  1.00  0.00     0.167 HD
ENDBRANCH   7   9
ENDBRANCH   1   7
BRANCH   6  11
HETATM   11  C   LIG     1      16.558  35.747  22.456  1.00  0.00     0.177 C 
HETATM   12  O   LIG     1      17.097  34.915  21.677  1.00  0.00    -0.646 OA
BRANCH  11  13
HETATM   13  O   LIG     1      15.433  36.448  22.032  1.00  0.00    -0.773 OA
HETATM   14  H   LIG     1      14.634  35.961  21.643  1.00  0.00     0.167 HD
ENDBRANCH  11  13
ENDBRANCH   6  11
TORSDOF 4
ENDMDL
MODEL 5
REMARK VINA RESULT:      -6.5      7.351      9.241
REMARK  4 active torsions:
REMARK  status: ('A' for Active; 'I' for Inactive)
REMARK    1  A    between atoms: O_1  and  C_2 
REMARK    2  A    between atoms: C_2  and  C_3 
REMARK    3  A    between atoms: C_8  and  C_9 
REMARK    4  A    between atoms: C_9  and  O_10 
ROOT
HETATM    1  C   LIG     1      15.526  31.809  15.108  1.00  0.00     0.054 A 
HETATM    2  C   LIG     1      15.193  30.691  14.324  1.00  0.00     0.019 A 
HETATM    3  C   LIG     1      14.046  29.945  14.595  1.00  0.00     0.001 A 
HETATM    4  C   LIG     1      13.211  30.306  15.649  1.00  0.00     0.001 A 
HETATM    5  C   LIG     1      13.529  31.406  16.448  1.00  0.00     0.019 A 
HETATM    6  C   LIG     1      14.690  32.161  16.206  1.00  0.00     0.054 A 
ENDROOT
BRANCH   1   7
HETATM    7  C   LIG     1      16.697  32.621  14.704  1.00  0.00     0.177 C 
HETATM    8  O   LIG     1      16.597  33.452  13.763  1.00  0.00    -0.646 OA
BRANCH   7   9
HETATM    9  O   LIG     1      17.932  32.451  15.324  1.00  0.00    -0.773 OA
HETATM   10  H   LIG     1      18.559  33.231  15.486  1.00  0.00     0.167 HD
ENDBRANCH   7   9
ENDBRANCH   1   7
BRANCH   6  11
HETATM   11  C   LIG     1      15.017  33.257  17.150  1.00  0.00     0.177 C 
HETATM   12  O   LIG     1      15.575  33.012  18.254  1.00  0.00    -0.646 OA
BRANCH  11  13
HETATM   13  O   LIG     1      14.661  34.567  16.843  1.00  0.00    -0.773 OA
HETATM   14  H   LIG     1      15.348  35.312  16.870  1.00  0.00     0.167 HD
ENDBRANCH  11  13
ENDBRANCH   6  11
TORSDOF 4
ENDMDL
MODEL 6
REMARK VINA RESULT:      -6.5      7.365      8.993
REMARK  4 active torsions:
REMARK  status: ('A' for Active; 'I' for Inactive)
REMARK    1  A    between atoms: O_1  and  C_2 
REMARK    2  A    between atoms: C_2  and  C_3 
REMARK    3  A    between atoms: C_8  and  C_9 
REMARK    4  A    between atoms: C_9  and  O_10 
ROOT
HETATM    1  C   LIG     1      14.681  32.160  16.183  1.00  0.00     0.054 A 
HETATM    2  C   LIG     1      13.530  31.391  16.427  1.00  0.00     0.019 A 
HETATM    3  C   LIG     1      13.223  30.290  15.628  1.00  0.00     0.001 A 
HETATM    4  C   LIG     1      14.064  29.935  14.576  1.00  0.00     0.001 A 
HETATM    5  C   LIG     1      15.207  30.691  14.308  1.00  0.00     0.019 A 
HETATM    6  C   LIG     1      15.525  31.817  15.088  1.00  0.00     0.054 A 
ENDROOT
BRANCH   1   7
HETATM    7  C   LIG     1      15.007  33.250  17.130  1.00  0.00     0.177 C 
HETATM    8  O   LIG     1      15.563  32.988  18.230  1.00  0.00    -0.646 OA
BRANCH   7   9
HETATM    9  O   LIG     1      14.667  34.570  16.845  1.00  0.00    -0.773 OA
HETATM   10  H   LIG     1      13.701  34.862  16.750  1.00  0.00     0.167 HD
ENDBRANCH   7   9
ENDBRANCH   1   7
BRANCH   6  11
HETATM   11  C   LIG     1      16.699  32.630  14.690  1.00  0.00     0.177 C 
HETATM   12  O   LIG     1      16.617  33.464  13.748  1.00  0.00    -0.646 OA
BRANCH  11  13
HETATM   13  O   LIG     1      17.923  32.440  15.325  1.00  0.00    -0.773 OA
HETATM   14  H   LIG     1      18.491  33.230  15.607  1.00  0.00     0.167 HD
ENDBRANCH  11  13
ENDBRANCH   6  11
TORSDOF 4
ENDMDL
MODEL 7
REMARK VINA RESULT:      -6.3      2.446      3.693
REMARK  4 active torsions:
REMARK  status: ('A' for Active; 'I' for Inactive)
REMARK    1  A    between atoms: O_1  and  C_2 
REMARK    2  A    between atoms: C_2  and  C_3 
REMARK    3  A    between atoms: C_8  and  C_9 
REMARK    4  A    between atoms: C_9  and  O_10 
ROOT
HETATM    1  C   LIG     1      17.326  36.874  23.868  1.00  0.00     0.054 A 
HETATM    2  C   LIG     1      17.117  35.484  23.885  1.00  0.00     0.019 A 
HETATM    3  C   LIG     1      16.926  34.776  22.698  1.00  0.00     0.001 A 
HETATM    4  C   LIG     1      16.946  35.444  21.476  1.00  0.00     0.001 A 
HETATM    5  C   LIG     1      17.140  36.826  21.436  1.00  0.00     0.019 A 
HETATM    6  C   LIG     1      17.315  37.563  22.622  1.00  0.00     0.054 A 
ENDROOT
BRANCH   1   7
HETATM    7  C   LIG     1      17.628  37.550  25.150  1.00  0.00     0.177 C 
HETATM    8  O   LIG     1      16.824  38.394  25.626  1.00  0.00    -0.646 OA
BRANCH   7   9
HETATM    9  O   LIG     1      18.819  37.299  25.827  1.00  0.00    -0.773 OA
HETATM   10  H   LIG     1      18.851  37.220  26.837  1.00  0.00     0.167 HD
ENDBRANCH   7   9
ENDBRANCH   1   7
BRANCH   6  11
HETATM   11  C   LIG     1      17.421  39.038  22.514  1.00  0.00     0.177 C 
HETATM   12  O   LIG     1      18.408  39.574  21.942  1.00  0.00    -0.646 OA
BRANCH  11  13
HETATM   13  O   LIG     1      16.448  39.848  23.093  1.00  0.00    -0.773 OA
HETATM   14  H   LIG     1      15.622  40.121  22.573  1.00  0.00     0.167 HD
ENDBRANCH  11  13
ENDBRANCH   6  11
TORSDOF 4
ENDMDL
MODEL 8
REMARK VINA RESULT:      -6.2      2.391      3.551
REMARK  4 active torsions:
REMARK  status: ('A' for Active; 'I' for Inactive)
REMARK    1  A    between atoms: O_1  and  C_2 
REMARK    2  A    between atoms: C_2  and  C_3 
REMARK    3  A    between atoms: C_8  and  C_9 
REMARK    4  A    between atoms: C_9  and  O_10 
ROOT
HETATM    1  C   LIG     1      17.388  37.569  22.587  1.00  0.00     0.054 A 
HETATM    2  C   LIG     1      17.185  36.947  21.343  1.00  0.00     0.019 A 
HETATM    3  C   LIG     1      16.937  35.577  21.262  1.00  0.00     0.001 A 
HETATM    4  C   LIG     1      16.883  34.807  22.421  1.00  0.00     0.001 A 
HETATM    5  C   LIG     1      17.093  35.402  23.667  1.00  0.00     0.019 A 
HETATM    6  C   LIG     1      17.364  36.779  23.770  1.00  0.00     0.054 A 
ENDROOT
BRANCH   1   7
HETATM    7  C   LIG     1      17.540  39.042  22.614  1.00  0.00     0.177 C 
HETATM    8  O   LIG     1      16.644  39.762  23.129  1.00  0.00    -0.646 OA
BRANCH   7   9
HETATM    9  O   LIG     1      18.647  39.657  22.034  1.00  0.00    -0.773 OA
HETATM   10  H   LIG     1      19.555  39.652  22.485  1.00  0.00     0.167 HD
ENDBRANCH   7   9
ENDBRANCH   1   7
BRANCH   6  11
HETATM   11  C   LIG     1      17.672  37.328  25.113  1.00  0.00     0.177 C 
HETATM   12  O   LIG     1      18.685  36.936  25.753  1.00  0.00    -0.646 OA
BRANCH  11  13
HETATM   13  O   LIG     1      16.809  38.248  25.702  1.00  0.00    -0.773 OA
HETATM   14  H   LIG     1      16.424  38.084  26.624  1.00  0.00     0.167 HD
ENDBRANCH  11  13
ENDBRANCH   6  11
TORSDOF 4
ENDMDL
MODEL 9
REMARK VINA RESULT:      -6.2      7.202      8.926
REMARK  4 active torsions:
REMARK  status: ('A' for Active; 'I' for Inactive)
REMARK    1  A    between atoms: O_1  and  C_2 
REMARK    2  A    between atoms: C_2  and  C_3 
REMARK    3  A    between atoms: C_8  and  C_9 
REMARK    4  A    between atoms: C_9  and  O_10 
ROOT
HETATM    1  C   LIG     1      14.285  31.428  15.979  1.00  0.00     0.054 A 
HETATM    2  C   LIG     1      14.002  30.381  15.085  1.00  0.00     0.019 A 
HETATM    3  C   LIG     1      14.771  30.195  13.937  1.00  0.00     0.001 A 
HETATM    4  C   LIG     1      15.838  31.047  13.666  1.00  0.00     0.001 A 
HETATM    5  C   LIG     1      16.130  32.102  14.533  1.00  0.00     0.019 A 
HETATM    6  C   LIG     1      15.355  32.320  15.687  1.00  0.00     0.054 A 
ENDROOT
BRANCH   1   7
HETATM    7  C   LIG     1      13.499  31.508  17.232  1.00  0.00     0.177 C 
HETATM    8  O   LIG     1      13.961  31.026  18.300  1.00  0.00    -0.646 OA
BRANCH   7   9
HETATM    9  O   LIG     1      12.226  32.073  17.242  1.00  0.00    -0.773 OA
HETATM   10  H   LIG     1      11.459  31.667  16.719  1.00  0.00     0.167 HD
ENDBRANCH   7   9
ENDBRANCH   1   7
BRANCH   6  11
HETATM   11  C   LIG     1      15.659  33.513  16.513  1.00  0.00     0.177 C 
HETATM   12  O   LIG     1      16.027  34.593  15.976  1.00  0.00    -0.646 OA
BRANCH  11  13
HETATM   13  O   LIG     1      15.590  33.433  17.901  1.00  0.00    -0.773 OA
HETATM   14  H   LIG     1      15.157  34.171  18.444  1.00  0.00     0.167 HD
ENDBRANCH  11  13
ENDBRANCH   6  11
TORSDOF 4
ENDMDL
MODEL 10
REMARK VINA RESULT:      -6.2      7.359      9.168
REMARK  4 active torsions:
REMARK  status: ('A' for Active; 'I' for Inactive)
REMARK    1  A    between atoms: O_1  and  C_2 
REMARK    2  A    between atoms: C_2  and  C_3 
REMARK    3  A    between atoms: C_8  and  C_9 
REMARK    4  A    between atoms: C_9  and  O_10 
ROOT
HETATM    1  C   LIG     1      15.493  31.700  15.302  1.00  0.00     0.054 A 
HETATM    2  C   LIG     1      15.328  30.835  14.206  1.00  0.00     0.019 A 
HETATM    3  C   LIG     1      14.217  29.996  14.119  1.00  0.00     0.001 A 
HETATM    4  C   LIG     1      13.251  30.011  15.122  1.00  0.00     0.001 A 
HETATM    5  C   LIG     1      13.401  30.852  16.226  1.00  0.00     0.019 A 
HETATM    6  C   LIG     1      14.523  31.693  16.344  1.00  0.00     0.054 A 
ENDROOT
BRANCH   1   7
HETATM    7  C   LIG     1      16.637  32.640  15.283  1.00  0.00     0.177 C 
HETATM    8  O   LIG     1      17.806  32.219  15.483  1.00  0.00    -0.646 OA
BRANCH   7   9
HETATM    9  O   LIG     1      16.436  34.005  15.088  1.00  0.00    -0.773 OA
HETATM   10  H   LIG     1      15.905  34.564  15.745  1.00  0.00     0.167 HD
ENDBRANCH   7   9
ENDBRANCH   1   7
BRANCH   6  11
HETATM   11  C   LIG     1      14.667  32.490  17.586  1.00  0.00     0.177 C 
HETATM   12  O   LIG     1      15.303  33.579  17.583  1.00  0.00    -0.646 OA
BRANCH  11  13
HETATM   13  O   LIG     1      14.140  32.013  18.783  1.00  0.00    -0.773 OA
HETATM   14  H   LIG     1      13.183  31.686  18.836  1.00  0.00     0.167 HD
ENDBRANCH  11  13
ENDBRANCH   6  11
TORSDOF 4
ENDMDL
MODEL 11
REMARK VINA RESULT:      -6.1      2.012      3.467
REMARK  4 active torsions:
REMARK  status: ('A' for Active; 'I' for Inactive)
REMARK    1  A    between atoms: O_1  and  C_2 
REMARK    2  A    between atoms: C_2  and  C_3 
REMARK    3  A    between atoms: C_8  and  C_9 
REMARK    4  A    between atoms: C_9  and  O_10 
ROOT
HETATM    1  C   LIG     1      17.332  36.866  21.391  1.00  0.00     0.054 A 
HETATM    2  C   LIG     1      16.889  37.542  22.541  1.00  0.00     0.019 A 
HETATM    3  C   LIG     1      17.341  38.829  22.831  1.00  0.00     0.001 A 
HETATM    4  C   LIG     1      18.237  39.464  21.976  1.00  0.00     0.001 A 
HETATM    5  C   LIG     1      18.701  38.807  20.835  1.00  0.00     0.019 A 
HETATM    6  C   LIG     1      18.274  37.501  20.532  1.00  0.00     0.054 A 
ENDROOT
BRANCH   1   7
HETATM    7  C   LIG     1      16.734  35.547  21.083  1.00  0.00     0.177 C 
HETATM    8  O   LIG     1      16.727  34.637  21.953  1.00  0.00    -0.646 OA
BRANCH   7   9
HETATM    9  O   LIG     1      16.212  35.276  19.820  1.00  0.00    -0.773 OA
HETATM   10  H   LIG     1      15.319  34.812  19.702  1.00  0.00     0.167 HD
ENDBRANCH   7   9
ENDBRANCH   1   7
BRANCH   6  11
HETATM   11  C   LIG     1      18.877  36.827  19.357  1.00  0.00     0.177 C 
HETATM   12  O   LIG     1      18.262  36.776  18.257  1.00  0.00    -0.646 OA
BRANCH  11  13
HETATM   13  O   LIG     1      20.112  36.197  19.476  1.00  0.00    -0.773 OA
HETATM   14  H   LIG     1      20.973  36.708  19.323  1.00  0.00     0.167 HD
ENDBRANCH  11  13
ENDBRANCH   6  11
TORSDOF 4
ENDMDL
MODEL 12
REMARK VINA RESULT:      -6.0      7.994     10.005
REMARK  4 active torsions:
REMARK  status: ('A' for Active; 'I' for Inactive)
REMARK    1  A    between atoms: O_1  and  C_2 
REMARK    2  A    between atoms: C_2  and  C_3 
REMARK    3  A    between atoms: C_8  and  C_9 
REMARK    4  A    between atoms: C_9  and  O_10 
ROOT
HETATM    1  C   LIG     1      14.910  31.093  14.856  1.00  0.00     0.054 A 
HETATM    2  C   LIG     1      13.726  30.400  15.161  1.00  0.00     0.019 A 
HETATM    3  C   LIG     1      12.965  30.745  16.278  1.00  0.00     0.001 A 
HETATM    4  C   LIG     1      13.371  31.790  17.104  1.00  0.00     0.001 A 
HETATM    5  C   LIG     1      14.550  32.484  16.827  1.00  0.00     0.019 A 
HETATM    6  C   LIG     1      15.344  32.141  15.717  1.00  0.00     0.054 A 
ENDROOT
BRANCH   1   7
HETATM    7  C   LIG     1      15.615  30.750  13.600  1.00  0.00     0.177 C 
HETATM    8  O   LIG     1      15.685  29.551  13.221  1.00  0.00    -0.646 OA
BRANCH   7   9
HETATM    9  O   LIG     1      16.246  31.734  12.843  1.00  0.00    -0.773 OA
HETATM   10  H   LIG     1      15.739  32.291  12.164  1.00  0.00     0.167 HD
ENDBRANCH   7   9
ENDBRANCH   1   7
BRANCH   6  11
HETATM   11  C   LIG     1      16.630  32.855  15.535  1.00  0.00     0.177 C 
HETATM   12  O   LIG     1      17.713  32.217  15.434  1.00  0.00    -0.646 OA
BRANCH  11  13
HETATM   13  O   LIG     1      16.657  34.246  15.525  1.00  0.00    -0.773 OA
HETATM   14  H   LIG     1      15.861  34.784  15.846  1.00  0.00     0.167 HD
ENDBRANCH  11  13
ENDBRANCH   6  11
TORSDOF 4
ENDMDL
MODEL 13
REMARK VINA RESULT:      -6.0      7.988      9.618
REMARK  4 active torsions:
REMARK  status: ('A' for Active; 'I' for Inactive)
REMARK    1  A    between atoms: O_1  and  C_2 
REMARK    2  A    between atoms: C_2  and  C_3 
REMARK    3  A    between atoms: C_8  and  C_9 
REMARK    4  A    between atoms: C_9  and  O_10 
ROOT
HETATM    1  C   LIG     1      15.351  32.155  15.715  1.00  0.00     0.054 A 
HETATM    2  C   LIG     1      14.568  32.494  16.833  1.00  0.00     0.019 A 
HETATM    3  C   LIG     1      13.392  31.801  17.117  1.00  0.00     0.001 A 
HETATM    4  C   LIG     1      12.981  30.756  16.294  1.00  0.00     0.001 A 
HETATM    5  C   LIG     1      13.736  30.411  15.171  1.00  0.00     0.019 A 
HETATM    6  C   LIG     1      14.915  31.109  14.854  1.00  0.00     0.054 A 
ENDROOT
BRANCH   1   7
HETATM    7  C   LIG     1      16.641  32.857  15.529  1.00  0.00     0.177 C 
HETATM    8  O   LIG     1      17.712  32.200  15.439  1.00  0.00    -0.646 OA
BRANCH   7   9
HETATM    9  O   LIG     1      16.699  34.248  15.492  1.00  0.00    -0.773 OA
HETATM   10  H   LIG     1      16.428  34.813  16.289  1.00  0.00     0.167 HD
ENDBRANCH   7   9
ENDBRANCH   1   7
BRANCH   6  11
HETATM   11  C   LIG     1      15.618  30.753  13.598  1.00  0.00     0.177 C 
HETATM   12  O   LIG     1      15.691  29.553  13.218  1.00  0.00    -0.646 OA
BRANCH  11  13
HETATM   13  O   LIG     1      16.248  31.743  12.850  1.00  0.00    -0.773 OA
HETATM   14  H   LIG     1      17.100  32.181  13.181  1.00  0.00     0.167 HD
ENDBRANCH  11  13
ENDBRANCH   6  11
TORSDOF 4
ENDMDL
MODEL 14
REMARK VINA RESULT:      -5.9      2.013      3.215
REMARK  4 active torsions:
REMARK  status: ('A' for Active; 'I' for Inactive)
REMARK    1  A    between atoms: O_1  and  C_2 
REMARK    2  A    between atoms: C_2  and  C_3 
REMARK    3  A    between atoms: C_8  and  C_9 
REMARK    4  A    between atoms: C_9  and  O_10 
ROOT
HETATM    1  C   LIG     1      18.143  37.424  20.597  1.00  0.00     0.054 A 
HETATM    2  C   LIG     1      18.661  38.690  20.919  1.00  0.00     0.019 A 
HETATM    3  C   LIG     1      18.218  39.377  22.049  1.00  0.00     0.001 A 
HETATM    4  C   LIG     1      17.254  38.809  22.878  1.00  0.00     0.001 A 
HETATM    5  C   LIG     1      16.716  37.558  22.571  1.00  0.00     0.019 A 
HETATM    6  C   LIG     1      17.134  36.856  21.426  1.00  0.00     0.054 A 
ENDROOT
BRANCH   1   7
HETATM    7  C   LIG     1      18.731  36.701  19.447  1.00  0.00     0.177 C 
HETATM    8  O   LIG     1      19.922  36.296  19.495  1.00  0.00    -0.646 OA
BRANCH   7   9
HETATM    9  O   LIG     1      17.996  36.496  18.281  1.00  0.00    -0.773 OA
HETATM   10  H   LIG     1      17.660  35.576  18.019  1.00  0.00     0.167 HD
ENDBRANCH   7   9
ENDBRANCH   1   7
BRANCH   6  11
HETATM   11  C   LIG     1      16.454  35.577  21.108  1.00  0.00     0.177 C 
HETATM   12  O   LIG     1      16.727  34.525  21.747  1.00  0.00    -0.646 OA
BRANCH  11  13
HETATM   13  O   LIG     1      15.541  35.518  20.059  1.00  0.00    -0.773 OA
HETATM   14  H   LIG     1      15.683  36.059  19.215  1.00  0.00     0.167 HD
ENDBRANCH  11  13
ENDBRANCH   6  11
TORSDOF 4
ENDMDL
MODEL 15
REMARK VINA RESULT:      -5.8      2.580      4.260
REMARK  4 active torsions:
REMARK  status: ('A' for Active; 'I' for Inactive)
REMARK    1  A    between atoms: O_1  and  C_2 
REMARK    2  A    between atoms: C_2  and  C_3 
REMARK    3  A    between atoms: C_8  and  C_9 
REMARK    4  A    between atoms: C_9  and  O_10 
ROOT
HETATM    1  C   LIG     1      17.696  37.240  21.141  1.00  0.00     0.054 A 
HETATM    2  C   LIG     1      16.963  36.771  22.245  1.00  0.00     0.019 A 
HETATM    3  C   LIG     1      16.777  37.573  23.371  1.00  0.00     0.001 A 
HETATM    4  C   LIG     1      17.315  38.856  23.411  1.00  0.00     0.001 A 
HETATM    5  C   LIG     1      18.056  39.338  22.331  1.00  0.00     0.019 A 
HETATM    6  C   LIG     1      18.273  38.540  21.193  1.00  0.00     0.054 A 
ENDROOT
BRANCH   1   7
HETATM    7  C   LIG     1      17.767  36.383  19.936  1.00  0.00     0.177 C 
HETATM    8  O   LIG     1      16.867  35.532  19.710  1.00  0.00    -0.646 OA
BRANCH   7   9
HETATM    9  O   LIG     1      18.845  36.472  19.058  1.00  0.00    -0.773 OA
HETATM   10  H   LIG     1      19.311  35.645  18.703  1.00  0.00     0.167 HD
ENDBRANCH   7   9
ENDBRANCH   1   7
BRANCH   6  11
HETATM   11  C   LIG     1      19.149  39.078  20.123  1.00  0.00     0.177 C 
HETATM   12  O   LIG     1      20.404  39.001  20.218  1.00  0.00    -0.646 OA
BRANCH  11  13
HETATM   13  O   LIG     1      18.587  39.721  19.024  1.00  0.00    -0.773 OA
HETATM   14  H   LIG     1      19.166  40.039  18.256  1.00  0.00     0.167 HD
ENDBRANCH  11  13
ENDBRANCH   6  11
TORSDOF 4
ENDMDL
MODEL 16
REMARK VINA RESULT:      -5.8      7.803      9.216
REMARK  4 active torsions:
REMARK  status: ('A' for Active; 'I' for Inactive)
REMARK    1  A    between atoms: O_1  and  C_2 
REMARK    2  A    between atoms: C_2  and  C_3 
REMARK    3  A    between atoms: C_8  and  C_9 
REMARK    4  A    between atoms: C_9  and  O_10 
ROOT
HETATM    1  C   LIG     1      14.721  31.824  16.114  1.00  0.00     0.054 A 
HETATM    2  C   LIG     1      15.670  32.852  16.255  1.00  0.00     0.019 A 
HETATM    3  C   LIG     1      16.575  33.133  15.231  1.00  0.00     0.001 A 
HETATM    4  C   LIG     1      16.544  32.397  14.050  1.00  0.00     0.001 A 
HETATM    5  C   LIG     1      15.618  31.364  13.893  1.00  0.00     0.019 A 
HETATM    6  C   LIG     1      14.709  31.049  14.919  1.00  0.00     0.054 A 
ENDROOT
BRANCH   1   7
HETATM    7  C   LIG     1      13.721  31.645  17.191  1.00  0.00     0.177 C 
HETATM    8  O   LIG     1      14.014  30.987  18.224  1.00  0.00    -0.646 OA
BRANCH   7   9
HETATM    9  O   LIG     1      12.434  32.162  17.063  1.00  0.00    -0.773 OA
HETATM   10  H   LIG     1      11.753  32.084  17.810  1.00  0.00     0.167 HD
ENDBRANCH   7   9
ENDBRANCH   1   7
BRANCH   6  11
HETATM   11  C   LIG     1      13.818  29.880  14.725  1.00  0.00     0.177 C 
HETATM   12  O   LIG     1      14.244  28.830  14.172  1.00  0.00    -0.646 OA
BRANCH  11  13
HETATM   13  O   LIG     1      12.482  29.954  15.109  1.00  0.00    -0.773 OA
HETATM   14  H   LIG     1      11.778  29.387  14.651  1.00  0.00     0.167 HD
ENDBRANCH  11  13
ENDBRANCH   6  11
TORSDOF 4
ENDMDL
MODEL 17
REMARK VINA RESULT:      -5.6      7.237      8.697
REMARK  4 active torsions:
REMARK  status: ('A' for Active; 'I' for Inactive)
REMARK    1  A    between atoms: O_1  and  C_2 
REMARK    2  A    between atoms: C_2  and  C_3 
REMARK    3  A    between atoms: C_8  and  C_9 
REMARK    4  A    between atoms: C_9  and  O_10 
ROOT
HETATM    1  C   LIG     1      15.307  32.398  15.809  1.00  0.00     0.054 A 
HETATM    2  C   LIG     1      16.327  32.487  14.846  1.00  0.00     0.019 A 
HETATM    3  C   LIG     1      16.360  31.614  13.758  1.00  0.00     0.001 A 
HETATM    4  C   LIG     1      15.373  30.643  13.612  1.00  0.00     0.001 A 
HETATM    5  C   LIG     1      14.357  30.529  14.563  1.00  0.00     0.019 A 
HETATM    6  C   LIG     1      14.315  31.385  15.678  1.00  0.00     0.054 A 
ENDROOT
BRANCH   1   7
HETATM    7  C   LIG     1      15.268  33.419  16.881  1.00  0.00     0.177 C 
HETATM    8  O   LIG     1      15.004  34.619  16.602  1.00  0.00    -0.646 OA
BRANCH   7   9
HETATM    9  O   LIG     1      15.563  33.082  18.200  1.00  0.00    -0.773 OA
HETATM   10  H   LIG     1      16.508  33.128  18.562  1.00  0.00     0.167 HD
ENDBRANCH   7   9
ENDBRANCH   1   7
BRANCH   6  11
HETATM   11  C   LIG     1      13.265  31.147  16.698  1.00  0.00     0.177 C 
HETATM   12  O   LIG     1      12.984  29.977  17.074  1.00  0.00    -0.646 OA
BRANCH  11  13
HETATM   13  O   LIG     1      12.542  32.219  17.214  1.00  0.00    -0.773 OA
HETATM   14  H   LIG     1      12.981  32.894  17.830  1.00  0.00     0.167 HD
ENDBRANCH  11  13
ENDBRANCH   6  11
TORSDOF 4
ENDMDL
MODEL 18
REMARK VINA RESULT:      -5.5      1.935      3.590
REMARK  4 active torsions:
REMARK  status: ('A' for Active; 'I' for Inactive)
REMARK    1  A    between atoms: O_1  and  C_2 
REMARK    2  A    between atoms: C_2  and  C_3 
REMARK    3  A    between atoms: C_8  and  C_9 
REMARK    4  A    between atoms: C_9  and  O_10 
ROOT
HETATM    1  C   LIG     1      17.735  37.649  21.266  1.00  0.00     0.054 A 
HETATM    2  C   LIG     1      18.019  36.515  20.485  1.00  0.00     0.019 A 
HETATM    3  C   LIG     1      17.189  35.394  20.527  1.00  0.00     0.001 A 
HETATM    4  C   LIG     1      16.062  35.390  21.344  1.00  0.00     0.001 A 
HETATM    5  C   LIG     1      15.768  36.501  22.137  1.00  0.00     0.019 A 
HETATM    6  C   LIG     1      16.601  37.635  22.125  1.00  0.00     0.054 A 
ENDROOT
BRANCH   1   7
HETATM    7  C   LIG     1      18.593  38.844  21.096  1.00  0.00     0.177 C 
HETATM    8  O   LIG     1      18.659  39.423  19.979  1.00  0.00    -0.646 OA
BRANCH   7   9
HETATM    9  O   LIG     1      19.370  39.321  22.149  1.00  0.00    -0.773 OA
HETATM   10  H   LIG     1      20.353  39.088  22.234  1.00  0.00     0.167 HD
ENDBRANCH   7   9
ENDBRANCH   1   7
BRANCH   6  11
HETATM   11  C   LIG     1      16.283  38.741  23.061  1.00  0.00     0.177 C 
HETATM   12  O   LIG     1      16.921  38.875  24.140  1.00  0.00    -0.646 OA
BRANCH  11  13
HETATM   13  O   LIG     1      15.238  39.614  22.775  1.00  0.00    -0.773 OA
HETATM   14  H   LIG     1      15.381  40.616  22.782  1.00  0.00     0.167 HD
ENDBRANCH  11  13
ENDBRANCH   6  11
TORSDOF 4
ENDMDL
MODEL 19
REMARK VINA RESULT:      -4.9     18.026     18.835
REMARK  4 active torsions:
REMARK  status: ('A' for Active; 'I' for Inactive)
REMARK    1  A    between atoms: O_1  and  C_2 
REMARK    2  A    between atoms: C_2  and  C_3 
REMARK    3  A    between atoms: C_8  and  C_9 
REMARK    4  A    between atoms: C_9  and  O_10 
ROOT
HETATM    1  C   LIG     1       3.989  42.134  33.578  1.00  0.00     0.054 A 
HETATM    2  C   LIG     1       3.608  42.179  32.226  1.00  0.00     0.019 A 
HETATM    3  C   LIG     1       3.255  41.014  31.544  1.00  0.00     0.001 A 
HETATM    4  C   LIG     1       3.272  39.787  32.204  1.00  0.00     0.001 A 
HETATM    5  C   LIG     1       3.659  39.718  33.543  1.00  0.00     0.019 A 
HETATM    6  C   LIG     1       4.037  40.877  34.245  1.00  0.00     0.054 A 
ENDROOT
BRANCH   1   7
HETATM    7  C   LIG     1       4.248  43.416  34.272  1.00  0.00     0.177 C 
HETATM    8  O   LIG     1       4.378  44.480  33.610  1.00  0.00    -0.646 OA
BRANCH   7   9
HETATM    9  O   LIG     1       4.395  43.462  35.656  1.00  0.00    -0.773 OA
HETATM   10  H   LIG     1       3.720  43.933  36.248  1.00  0.00     0.167 HD
ENDBRANCH   7   9
ENDBRANCH   1   7
BRANCH   6  11
HETATM   11  C   LIG     1       4.527  40.720  35.635  1.00  0.00     0.177 C 
HETATM   12  O   LIG     1       3.718  40.593  36.594  1.00  0.00    -0.646 OA
BRANCH  11  13
HETATM   13  O   LIG     1       5.893  40.762  35.899  1.00  0.00    -0.773 OA
HETATM   14  H   LIG     1       6.506  40.017  35.590  1.00  0.00     0.167 HD
ENDBRANCH  11  13
ENDBRANCH   6  11
TORSDOF 4
ENDMDL
MODEL 20
REMARK VINA RESULT:      -4.9     18.025     18.949
REMARK  4 active torsions:
REMARK  status: ('A' for Active; 'I' for Inactive)
REMARK    1  A    between atoms: O_1  and  C_2 
REMARK    2  A    between atoms: C_2  and  C_3 
REMARK    3  A    between atoms: C_8  and  C_9 
REMARK    4  A    between atoms: C_9  and  O_10 
ROOT
HETATM    1  C   LIG     1       4.028  40.878  34.241  1.00  0.00     0.054 A 
HETATM    2  C   LIG     1       3.655  39.717  33.541  1.00  0.00     0.019 A 
HETATM    3  C   LIG     1       3.268  39.783  32.203  1.00  0.00     0.001 A 
HETATM    4  C   LIG     1       3.252  41.008  31.540  1.00  0.00     0.001 A 
HETATM    5  C   LIG     1       3.607  42.175  32.219  1.00  0.00     0.019 A 
HETATM    6  C   LIG     1       3.981  42.135  33.574  1.00  0.00     0.054 A 
ENDROOT
BRANCH   1   7
HETATM    7  C   LIG     1       4.530  40.727  35.626  1.00  0.00     0.177 C 
HETATM    8  O   LIG     1       3.720  40.599  36.582  1.00  0.00    -0.646 OA
BRANCH   7   9
HETATM    9  O   LIG     1       5.895  40.766  35.899  1.00  0.00    -0.773 OA
HETATM   10  H   LIG     1       6.344  41.605  36.248  1.00  0.00     0.167 HD
ENDBRANCH   7   9
ENDBRANCH   1   7
BRANCH   6  11
HETATM   11  C   LIG     1       4.254  43.422  34.259  1.00  0.00     0.177 C 
HETATM   12  O   LIG     1       4.402  44.485  33.599  1.00  0.00    -0.646 OA
BRANCH  11  13
HETATM   13  O   LIG     1       4.400  43.454  35.643  1.00  0.00    -0.773 OA
HETATM   14  H   LIG     1       5.284  43.708  36.067  1.00  0.00     0.167 HD
ENDBRANCH  11  13
ENDBRANCH   6  11
TORSDOF 4
ENDMDL
