MODEL 1
REMARK VINA RESULT:      -7.4      0.000      0.000
REMARK  2 active torsions:
REMARK  status: ('A' for Active; 'I' for Inactive)
REMARK       I    between atoms: N_1  and  C_2 
REMARK    1  A    between atoms: C_2  and  C_3 
REMARK    2  A    between atoms: C_8  and  C_9 
REMARK       I    between atoms: C_9  and  N_10 
ROOT
HETATM    1  C   LIG     1      17.720  36.863  21.015  1.00  0.00     0.047 A 
HETATM    2  C   LIG     1      18.595  37.021  19.926  1.00  0.00     0.018 A 
HETATM    3  C   LIG     1      19.289  38.216  19.736  1.00  0.00     0.001 A 
HETATM    4  C   LIG     1      19.113  39.275  20.623  1.00  0.00     0.001 A 
HETATM    5  C   LIG     1      18.242  39.145  21.704  1.00  0.00     0.018 A 
HETATM    6  C   LIG     1      17.540  37.945  21.922  1.00  0.00     0.047 A 
ENDROOT
BRANCH   1   7
HETATM    7  C   LIG     1      16.980  35.587  21.130  1.00  0.00     0.250 C 
HETATM    8  N   LIG     1      16.149  35.137  20.059  1.00  0.00    -0.366 N 
HETATM    9  H   LIG     1      15.656  34.219  20.126  1.00  0.00     0.159 HD
HETATM   10  H   LIG     1      16.002  35.728  19.210  1.00  0.00     0.159 HD
HETATM   11  O   LIG     1      17.113  34.862  22.152  1.00  0.00    -0.268 OA
ENDBRANCH   1   7
BRANCH   6  12
HETATM   12  C   LIG     1      16.597  37.891  23.061  1.00  0.00     0.250 C 
HETATM   13  N   LIG     1      15.234  38.283  22.886  1.00  0.00    -0.366 N 
HETATM   14  H   LIG     1      14.870  38.550  21.946  1.00  0.00     0.159 HD
HETATM   15  H   LIG     1      14.578  38.279  23.699  1.00  0.00     0.159 HD
HETATM   16  O   LIG     1      16.996  37.546  24.204  1.00  0.00    -0.268 OA
ENDBRANCH   6  12
TORSDOF 2
ENDMDL
MODEL 2
REMARK VINA RESULT:      -7.4      0.294      2.891
REMARK  2 active torsions:
REMARK  status: ('A' for Active; 'I' for Inactive)
REMARK       I    between atoms: N_1  and  C_2 
REMARK    1  A    between atoms: C_2  and  C_3 
REMARK    2  A    between atoms: C_8  and  C_9 
REMARK       I    between atoms: C_9  and  N_10 
ROOT
HETATM    1  C   LIG     1      17.602  38.083  21.830  1.00  0.00     0.047 A 
HETATM    2  C   LIG     1      18.403  39.198  21.526  1.00  0.00     0.018 A 
HETATM    3  C   LIG     1      19.268  39.178  20.431  1.00  0.00     0.001 A 
HETATM    4  C   LIG     1      19.354  38.042  19.630  1.00  0.00     0.001 A 
HETATM    5  C   LIG     1      18.578  36.920  19.920  1.00  0.00     0.018 A 
HETATM    6  C   LIG     1      17.691  36.922  21.012  1.00  0.00     0.047 A 
ENDROOT
BRANCH   1   7
HETATM    7  C   LIG     1      16.743  38.154  23.034  1.00  0.00     0.250 C 
HETATM    8  N   LIG     1      15.352  38.454  22.909  1.00  0.00    -0.366 N 
HETATM    9  H   LIG     1      14.739  38.468  23.754  1.00  0.00     0.159 HD
HETATM   10  H   LIG     1      14.936  38.689  21.980  1.00  0.00     0.159 HD
HETATM   11  O   LIG     1      17.219  37.904  24.173  1.00  0.00    -0.268 OA
ENDBRANCH   1   7
BRANCH   6  12
HETATM   12  C   LIG     1      16.932  35.683  21.291  1.00  0.00     0.250 C 
HETATM   13  N   LIG     1      15.763  35.369  20.531  1.00  0.00    -0.366 N 
HETATM   14  H   LIG     1      15.465  35.970  19.732  1.00  0.00     0.159 HD
HETATM   15  H   LIG     1      15.206  34.513  20.752  1.00  0.00     0.159 HD
HETATM   16  O   LIG     1      17.279  34.919  22.230  1.00  0.00    -0.268 OA
ENDBRANCH   6  12
TORSDOF 2
ENDMDL
MODEL 3
REMARK VINA RESULT:      -7.2      2.445      3.726
REMARK  2 active torsions:
REMARK  status: ('A' for Active; 'I' for Inactive)
REMARK       I    between atoms: N_1  and  C_2 
REMARK    1  A    between atoms: C_2  and  C_3 
REMARK    2  A    between atoms: C_8  and  C_9 
REMARK       I    between atoms: C_9  and  N_10 
ROOT
HETATM    1  C   LIG     1      17.087  35.822  23.776  1.00  0.00     0.047 A 
HETATM    2  C   LIG     1      17.453  34.837  24.710  1.00  0.00     0.018 A 
HETATM    3  C   LIG     1      17.853  35.189  25.999  1.00  0.00     0.001 A 
HETATM    4  C   LIG     1      17.904  36.531  26.372  1.00  0.00     0.001 A 
HETATM    5  C   LIG     1      17.556  37.525  25.458  1.00  0.00     0.018 A 
HETATM    6  C   LIG     1      17.139  37.191  24.157  1.00  0.00     0.047 A 
ENDROOT
BRANCH   1   7
HETATM    7  C   LIG     1      16.718  35.380  22.412  1.00  0.00     0.250 C 
HETATM    8  N   LIG     1      15.408  34.877  22.147  1.00  0.00    -0.366 N 
HETATM    9  H   LIG     1      15.137  34.600  21.177  1.00  0.00     0.159 HD
HETATM   10  H   LIG     1      14.715  34.753  22.919  1.00  0.00     0.159 HD
HETATM   11  O   LIG     1      17.539  35.490  21.463  1.00  0.00    -0.268 OA
ENDBRANCH   1   7
BRANCH   6  12
HETATM   12  C   LIG     1      16.829  38.298  23.223  1.00  0.00     0.250 C 
HETATM   13  N   LIG     1      15.471  38.634  22.932  1.00  0.00    -0.366 N 
HETATM   14  H   LIG     1      14.684  38.153  23.418  1.00  0.00     0.159 HD
HETATM   15  H   LIG     1      15.253  39.391  22.246  1.00  0.00     0.159 HD
HETATM   16  O   LIG     1      17.756  38.920  22.641  1.00  0.00    -0.268 OA
ENDBRANCH   6  12
TORSDOF 2
ENDMDL
MODEL 4
REMARK VINA RESULT:      -7.1      2.380      4.574
REMARK  2 active torsions:
REMARK  status: ('A' for Active; 'I' for Inactive)
REMARK       I    between atoms: N_1  and  C_2 
REMARK    1  A    between atoms: C_2  and  C_3 
REMARK    2  A    between atoms: C_8  and  C_9 
REMARK       I    between atoms: C_9  and  N_10 
ROOT
HETATM    1  C   LIG     1      17.151  37.255  24.031  1.00  0.00     0.047 A 
HETATM    2  C   LIG     1      17.498  37.595  25.351  1.00  0.00     0.018 A 
HETATM    3  C   LIG     1      17.820  36.607  26.282  1.00  0.00     0.001 A 
HETATM    4  C   LIG     1      17.788  35.264  25.913  1.00  0.00     0.001 A 
HETATM    5  C   LIG     1      17.435  34.903  24.613  1.00  0.00     0.018 A 
HETATM    6  C   LIG     1      17.119  35.884  23.655  1.00  0.00     0.047 A 
ENDROOT
BRANCH   1   7
HETATM    7  C   LIG     1      16.776  38.351  23.110  1.00  0.00     0.250 C 
HETATM    8  N   LIG     1      15.400  38.665  22.887  1.00  0.00    -0.366 N 
HETATM    9  H   LIG     1      15.137  39.462  22.265  1.00  0.00     0.159 HD
HETATM   10  H   LIG     1      14.642  38.090  23.318  1.00  0.00     0.159 HD
HETATM   11  O   LIG     1      17.665  39.047  22.551  1.00  0.00    -0.268 OA
ENDBRANCH   1   7
BRANCH   6  12
HETATM   12  C   LIG     1      16.709  35.430  22.307  1.00  0.00     0.250 C 
HETATM   13  N   LIG     1      15.447  34.786  22.118  1.00  0.00    -0.366 N 
HETATM   14  H   LIG     1      14.774  34.684  22.909  1.00  0.00     0.159 HD
HETATM   15  H   LIG     1      15.173  34.433  21.174  1.00  0.00     0.159 HD
HETATM   16  O   LIG     1      17.485  35.561  21.325  1.00  0.00    -0.268 OA
ENDBRANCH   6  12
TORSDOF 2
ENDMDL
MODEL 5
REMARK VINA RESULT:      -6.9      6.932      9.057
REMARK  2 active torsions:
REMARK  status: ('A' for Active; 'I' for Inactive)
REMARK       I    between atoms: N_1  and  C_2 
REMARK    1  A    between atoms: C_2  and  C_3 
REMARK    2  A    between atoms: C_8  and  C_9 
REMARK       I    between atoms: C_9  and  N_10 
ROOT
HETATM    1  C   LIG     1      14.675  32.365  16.367  1.00  0.00     0.047 A 
HETATM    2  C   LIG     1      13.530  31.691  16.827  1.00  0.00     0.018 A 
HETATM    3  C   LIG     1      13.060  30.554  16.170  1.00  0.00     0.001 A 
HETATM    4  C   LIG     1      13.719  30.079  15.038  1.00  0.00     0.001 A 
HETATM    5  C   LIG     1      14.850  30.739  14.558  1.00  0.00     0.018 A 
HETATM    6  C   LIG     1      15.348  31.880  15.212  1.00  0.00     0.047 A 
ENDROOT
BRANCH   1   7
HETATM    7  C   LIG     1      15.091  33.592  17.084  1.00  0.00     0.250 C 
HETATM    8  N   LIG     1      15.298  33.566  18.497  1.00  0.00    -0.366 N 
HETATM    9  H   LIG     1      15.626  34.422  18.996  1.00  0.00     0.159 HD
HETATM   10  H   LIG     1      15.098  32.704  19.052  1.00  0.00     0.159 HD
HETATM   11  O   LIG     1      15.314  34.657  16.448  1.00  0.00    -0.268 OA
ENDBRANCH   1   7
BRANCH   6  12
HETATM   12  C   LIG     1      16.524  32.558  14.622  1.00  0.00     0.250 C 
HETATM   13  N   LIG     1      17.735  32.680  15.371  1.00  0.00    -0.366 N 
HETATM   14  H   LIG     1      17.829  32.240  16.312  1.00  0.00     0.159 HD
HETATM   15  H   LIG     1      18.552  33.190  14.969  1.00  0.00     0.159 HD
HETATM   16  O   LIG     1      16.454  33.077  13.477  1.00  0.00    -0.268 OA
ENDBRANCH   6  12
TORSDOF 2
ENDMDL
MODEL 6
REMARK VINA RESULT:      -6.8      6.950      8.678
REMARK  2 active torsions:
REMARK  status: ('A' for Active; 'I' for Inactive)
REMARK       I    between atoms: N_1  and  C_2 
REMARK    1  A    between atoms: C_2  and  C_3 
REMARK    2  A    between atoms: C_8  and  C_9 
REMARK       I    between atoms: C_9  and  N_10 
ROOT
HETATM    1  C   LIG     1      15.308  31.923  15.151  1.00  0.00     0.047 A 
HETATM    2  C   LIG     1      14.842  30.757  14.519  1.00  0.00     0.018 A 
HETATM    3  C   LIG     1      13.737  30.068  15.017  1.00  0.00     0.001 A 
HETATM    4  C   LIG     1      13.086  30.525  16.161  1.00  0.00     0.001 A 
HETATM    5  C   LIG     1      13.538  31.673  16.811  1.00  0.00     0.018 A 
HETATM    6  C   LIG     1      14.643  32.391  16.319  1.00  0.00     0.047 A 
ENDROOT
BRANCH   1   7
HETATM    7  C   LIG     1      16.514  32.578  14.597  1.00  0.00     0.250 C 
HETATM    8  N   LIG     1      17.716  32.645  15.367  1.00  0.00    -0.366 N 
HETATM    9  H   LIG     1      18.577  33.074  14.962  1.00  0.00     0.159 HD
HETATM   10  H   LIG     1      17.743  32.292  16.350  1.00  0.00     0.159 HD
HETATM   11  O   LIG     1      16.509  33.038  13.425  1.00  0.00    -0.268 OA
ENDBRANCH   1   7
BRANCH   6  12
HETATM   12  C   LIG     1      15.098  33.573  17.084  1.00  0.00     0.250 C 
HETATM   13  N   LIG     1      15.255  33.496  18.503  1.00  0.00    -0.366 N 
HETATM   14  H   LIG     1      15.114  32.595  19.009  1.00  0.00     0.159 HD
HETATM   15  H   LIG     1      15.540  34.341  19.047  1.00  0.00     0.159 HD
HETATM   16  O   LIG     1      15.304  34.670  16.501  1.00  0.00    -0.268 OA
ENDBRANCH   6  12
TORSDOF 2
ENDMDL
MODEL 7
REMARK VINA RESULT:      -6.6      2.821      4.054
REMARK  2 active torsions:
REMARK  status: ('A' for Active; 'I' for Inactive)
REMARK       I    between atoms: N_1  and  C_2 
REMARK    1  A    between atoms: C_2  and  C_3 
REMARK    2  A    between atoms: C_8  and  C_9 
REMARK       I    between atoms: C_9  and  N_10 
ROOT
HETATM    1  C   LIG     1      17.382  36.844  23.844  1.00  0.00     0.047 A 
HETATM    2  C   LIG     1      17.126  35.462  23.866  1.00  0.00     0.018 A 
HETATM    3  C   LIG     1      16.867  34.766  22.685  1.00  0.00     0.001 A 
HETATM    4  C   LIG     1      16.848  35.440  21.466  1.00  0.00     0.001 A 
HETATM    5  C   LIG     1      17.088  36.813  21.422  1.00  0.00     0.018 A 
HETATM    6  C   LIG     1      17.363  37.533  22.600  1.00  0.00     0.047 A 
ENDROOT
BRANCH   1   7
HETATM    7  C   LIG     1      17.603  37.528  25.138  1.00  0.00     0.250 C 
HETATM    8  N   LIG     1      18.806  37.306  25.875  1.00  0.00    -0.366 N 
HETATM    9  H   LIG     1      18.977  37.817  26.769  1.00  0.00     0.159 HD
HETATM   10  H   LIG     1      19.516  36.613  25.546  1.00  0.00     0.159 HD
HETATM   11  O   LIG     1      16.755  38.350  25.578  1.00  0.00    -0.268 OA
ENDBRANCH   1   7
BRANCH   6  12
HETATM   12  C   LIG     1      17.563  38.996  22.487  1.00  0.00     0.250 C 
HETATM   13  N   LIG     1      18.817  39.519  22.044  1.00  0.00    -0.366 N 
HETATM   14  H   LIG     1      19.583  38.883  21.734  1.00  0.00     0.159 HD
HETATM   15  H   LIG     1      18.969  40.551  22.000  1.00  0.00     0.159 HD
HETATM   16  O   LIG     1      16.649  39.792  22.826  1.00  0.00    -0.268 OA
ENDBRANCH   6  12
TORSDOF 2
ENDMDL
MODEL 8
REMARK VINA RESULT:      -6.5      6.941      8.719
REMARK  2 active torsions:
REMARK  status: ('A' for Active; 'I' for Inactive)
REMARK       I    between atoms: N_1  and  C_2 
REMARK    1  A    between atoms: C_2  and  C_3 
REMARK    2  A    between atoms: C_8  and  C_9 
REMARK       I    between atoms: C_9  and  N_10 
ROOT
HETATM    1  C   LIG     1      15.295  32.409  15.638  1.00  0.00     0.047 A 
HETATM    2  C   LIG     1      16.085  32.273  14.483  1.00  0.00     0.018 A 
HETATM    3  C   LIG     1      15.907  31.190  13.621  1.00  0.00     0.001 A 
HETATM    4  C   LIG     1      14.947  30.221  13.905  1.00  0.00     0.001 A 
HETATM    5  C   LIG     1      14.161  30.330  15.052  1.00  0.00     0.018 A 
HETATM    6  C   LIG     1      14.315  31.420  15.928  1.00  0.00     0.047 A 
ENDROOT
BRANCH   1   7
HETATM    7  C   LIG     1      15.568  33.556  16.533  1.00  0.00     0.250 C 
HETATM    8  N   LIG     1      15.337  33.445  17.938  1.00  0.00    -0.366 N 
HETATM    9  H   LIG     1      15.565  34.242  18.574  1.00  0.00     0.159 HD
HETATM   10  H   LIG     1      14.914  32.580  18.345  1.00  0.00     0.159 HD
HETATM   11  O   LIG     1      16.052  34.623  16.072  1.00  0.00    -0.268 OA
ENDBRANCH   1   7
BRANCH   6  12
HETATM   12  C   LIG     1      13.480  31.449  17.150  1.00  0.00     0.250 C 
HETATM   13  N   LIG     1      12.200  32.086  17.133  1.00  0.00    -0.366 N 
HETATM   14  H   LIG     1      11.810  32.480  16.249  1.00  0.00     0.159 HD
HETATM   15  H   LIG     1      11.628  32.138  18.004  1.00  0.00     0.159 HD
HETATM   16  O   LIG     1      13.908  30.958  18.228  1.00  0.00    -0.268 OA
ENDBRANCH   6  12
TORSDOF 2
ENDMDL
MODEL 9
REMARK VINA RESULT:      -6.1      2.519      3.691
REMARK  2 active torsions:
REMARK  status: ('A' for Active; 'I' for Inactive)
REMARK       I    between atoms: N_1  and  C_2 
REMARK    1  A    between atoms: C_2  and  C_3 
REMARK    2  A    between atoms: C_8  and  C_9 
REMARK       I    between atoms: C_9  and  N_10 
ROOT
HETATM    1  C   LIG     1      17.319  37.403  22.405  1.00  0.00     0.047 A 
HETATM    2  C   LIG     1      17.298  36.886  21.097  1.00  0.00     0.018 A 
HETATM    3  C   LIG     1      17.035  35.535  20.868  1.00  0.00     0.001 A 
HETATM    4  C   LIG     1      16.800  34.677  21.941  1.00  0.00     0.001 A 
HETATM    5  C   LIG     1      16.828  35.166  23.247  1.00  0.00     0.018 A 
HETATM    6  C   LIG     1      17.080  36.527  23.500  1.00  0.00     0.047 A 
ENDROOT
BRANCH   1   7
HETATM    7  C   LIG     1      17.652  38.834  22.579  1.00  0.00     0.250 C 
HETATM    8  N   LIG     1      16.644  39.765  22.977  1.00  0.00    -0.366 N 
HETATM    9  H   LIG     1      16.887  40.768  23.134  1.00  0.00     0.159 HD
HETATM   10  H   LIG     1      15.650  39.464  23.088  1.00  0.00     0.159 HD
HETATM   11  O   LIG     1      18.835  39.237  22.426  1.00  0.00    -0.268 OA
ENDBRANCH   1   7
BRANCH   6  12
HETATM   12  C   LIG     1      17.141  36.969  24.912  1.00  0.00     0.250 C 
HETATM   13  N   LIG     1      17.633  36.086  25.922  1.00  0.00    -0.366 N 
HETATM   14  H   LIG     1      18.014  35.148  25.673  1.00  0.00     0.159 HD
HETATM   15  H   LIG     1      17.642  36.386  26.922  1.00  0.00     0.159 HD
HETATM   16  O   LIG     1      16.715  38.107  25.243  1.00  0.00    -0.268 OA
ENDBRANCH   6  12
TORSDOF 2
ENDMDL
MODEL 10
REMARK VINA RESULT:      -6.0      2.584      3.431
REMARK  2 active torsions:
REMARK  status: ('A' for Active; 'I' for Inactive)
REMARK       I    between atoms: N_1  and  C_2 
REMARK    1  A    between atoms: C_2  and  C_3 
REMARK    2  A    between atoms: C_8  and  C_9 
REMARK       I    between atoms: C_9  and  N_10 
ROOT
HETATM    1  C   LIG     1      17.851  36.952  20.513  1.00  0.00     0.047 A 
HETATM    2  C   LIG     1      16.955  35.872  20.605  1.00  0.00     0.018 A 
HETATM    3  C   LIG     1      16.039  35.791  21.654  1.00  0.00     0.001 A 
HETATM    4  C   LIG     1      16.011  36.781  22.634  1.00  0.00     0.001 A 
HETATM    5  C   LIG     1      16.898  37.855  22.569  1.00  0.00     0.018 A 
HETATM    6  C   LIG     1      17.822  37.963  21.514  1.00  0.00     0.047 A 
ENDROOT
BRANCH   1   7
HETATM    7  C   LIG     1      18.827  36.950  19.400  1.00  0.00     0.250 C 
HETATM    8  N   LIG     1      18.621  37.787  18.260  1.00  0.00    -0.366 N 
HETATM    9  H   LIG     1      19.329  37.812  17.493  1.00  0.00     0.159 HD
HETATM   10  H   LIG     1      17.753  38.360  18.166  1.00  0.00     0.159 HD
HETATM   11  O   LIG     1      19.871  36.250  19.469  1.00  0.00    -0.268 OA
ENDBRANCH   1   7
BRANCH   6  12
HETATM   12  C   LIG     1      18.765  39.104  21.532  1.00  0.00     0.250 C 
HETATM   13  N   LIG     1      19.567  39.356  22.687  1.00  0.00    -0.366 N 
HETATM   14  H   LIG     1      19.548  38.708  23.504  1.00  0.00     0.159 HD
HETATM   15  H   LIG     1      20.206  40.182  22.713  1.00  0.00     0.159 HD
HETATM   16  O   LIG     1      18.835  39.890  20.551  1.00  0.00    -0.268 OA
ENDBRANCH   6  12
TORSDOF 2
ENDMDL
MODEL 11
REMARK VINA RESULT:      -6.0      8.199     10.039
REMARK  2 active torsions:
REMARK  status: ('A' for Active; 'I' for Inactive)
REMARK       I    between atoms: N_1  and  C_2 
REMARK    1  A    between atoms: C_2  and  C_3 
REMARK    2  A    between atoms: C_8  and  C_9 
REMARK       I    between atoms: C_9  and  N_10 
ROOT
HETATM    1  C   LIG     1      15.417  31.844  15.455  1.00  0.00     0.047 A 
HETATM    2  C   LIG     1      14.844  32.563  16.518  1.00  0.00     0.018 A 
HETATM    3  C   LIG     1      13.603  32.198  17.040  1.00  0.00     0.001 A 
HETATM    4  C   LIG     1      12.909  31.117  16.500  1.00  0.00     0.001 A 
HETATM    5  C   LIG     1      13.454  30.396  15.437  1.00  0.00     0.018 A 
HETATM    6  C   LIG     1      14.709  30.740  14.904  1.00  0.00     0.047 A 
ENDROOT
BRANCH   1   7
HETATM    7  C   LIG     1      16.714  32.315  14.919  1.00  0.00     0.250 C 
HETATM    8  N   LIG     1      16.761  33.077  13.711  1.00  0.00    -0.366 N 
HETATM    9  H   LIG     1      17.672  33.440  13.354  1.00  0.00     0.159 HD
HETATM   10  H   LIG     1      15.894  33.257  13.157  1.00  0.00     0.159 HD
HETATM   11  O   LIG     1      17.782  32.091  15.547  1.00  0.00    -0.268 OA
ENDBRANCH   1   7
BRANCH   6  12
HETATM   12  C   LIG     1      15.206  29.962  13.746  1.00  0.00     0.250 C 
HETATM   13  N   LIG     1      14.922  28.566  13.642  1.00  0.00    -0.366 N 
HETATM   14  H   LIG     1      14.311  28.090  14.340  1.00  0.00     0.159 HD
HETATM   15  H   LIG     1      15.304  28.010  12.844  1.00  0.00     0.159 HD
HETATM   16  O   LIG     1      15.924  30.512  12.870  1.00  0.00    -0.268 OA
ENDBRANCH   6  12
TORSDOF 2
ENDMDL
MODEL 12
REMARK VINA RESULT:      -6.0      7.546      8.937
REMARK  2 active torsions:
REMARK  status: ('A' for Active; 'I' for Inactive)
REMARK       I    between atoms: N_1  and  C_2 
REMARK    1  A    between atoms: C_2  and  C_3 
REMARK    2  A    between atoms: C_8  and  C_9 
REMARK       I    between atoms: C_9  and  N_10 
ROOT
HETATM    1  C   LIG     1      14.822  31.089  14.906  1.00  0.00     0.047 A 
HETATM    2  C   LIG     1      15.772  31.429  13.927  1.00  0.00     0.018 A 
HETATM    3  C   LIG     1      16.643  32.501  14.121  1.00  0.00     0.001 A 
HETATM    4  C   LIG     1      16.571  33.258  15.289  1.00  0.00     0.001 A 
HETATM    5  C   LIG     1      15.628  32.946  16.268  1.00  0.00     0.018 A 
HETATM    6  C   LIG     1      14.748  31.861  16.099  1.00  0.00     0.047 A 
ENDROOT
BRANCH   1   7
HETATM    7  C   LIG     1      13.898  29.969  14.616  1.00  0.00     0.250 C 
HETATM    8  N   LIG     1      14.365  28.812  13.922  1.00  0.00    -0.366 N 
HETATM    9  H   LIG     1      13.722  28.007  13.750  1.00  0.00     0.159 HD
HETATM   10  H   LIG     1      15.342  28.764  13.554  1.00  0.00     0.159 HD
HETATM   11  O   LIG     1      12.705  30.005  15.020  1.00  0.00    -0.268 OA
ENDBRANCH   1   7
BRANCH   6  12
HETATM   12  C   LIG     1      13.742  31.614  17.156  1.00  0.00     0.250 C 
HETATM   13  N   LIG     1      12.426  32.159  17.038  1.00  0.00    -0.366 N 
HETATM   14  H   LIG     1      12.136  32.679  16.182  1.00  0.00     0.159 HD
HETATM   15  H   LIG     1      11.728  32.015  17.801  1.00  0.00     0.159 HD
HETATM   16  O   LIG     1      14.049  30.966  18.190  1.00  0.00    -0.268 OA
ENDBRANCH   6  12
TORSDOF 2
ENDMDL
MODEL 13
REMARK VINA RESULT:      -6.0      2.473      3.942
REMARK  2 active torsions:
REMARK  status: ('A' for Active; 'I' for Inactive)
REMARK       I    between atoms: N_1  and  C_2 
REMARK    1  A    between atoms: C_2  and  C_3 
REMARK    2  A    between atoms: C_8  and  C_9 
REMARK       I    between atoms: C_9  and  N_10 
ROOT
HETATM    1  C   LIG     1      17.276  37.501  22.392  1.00  0.00     0.047 A 
HETATM    2  C   LIG     1      16.420  36.397  22.550  1.00  0.00     0.018 A 
HETATM    3  C   LIG     1      16.282  35.450  21.536  1.00  0.00     0.001 A 
HETATM    4  C   LIG     1      16.988  35.596  20.343  1.00  0.00     0.001 A 
HETATM    5  C   LIG     1      17.834  36.689  20.160  1.00  0.00     0.018 A 
HETATM    6  C   LIG     1      17.997  37.650  21.174  1.00  0.00     0.047 A 
ENDROOT
BRANCH   1   7
HETATM    7  C   LIG     1      17.338  38.493  23.489  1.00  0.00     0.250 C 
HETATM    8  N   LIG     1      18.233  38.299  24.585  1.00  0.00    -0.366 N 
HETATM    9  H   LIG     1      18.303  39.017  25.340  1.00  0.00     0.159 HD
HETATM   10  H   LIG     1      18.807  37.429  24.662  1.00  0.00     0.159 HD
HETATM   11  O   LIG     1      16.640  39.540  23.442  1.00  0.00    -0.268 OA
ENDBRANCH   1   7
BRANCH   6  12
HETATM   12  C   LIG     1      18.874  38.810  20.896  1.00  0.00     0.250 C 
HETATM   13  N   LIG     1      18.830  39.455  19.622  1.00  0.00    -0.366 N 
HETATM   14  H   LIG     1      18.140  39.163  18.896  1.00  0.00     0.159 HD
HETATM   15  H   LIG     1      19.475  40.250  19.413  1.00  0.00     0.159 HD
HETATM   16  O   LIG     1      19.700  39.207  21.759  1.00  0.00    -0.268 OA
ENDBRANCH   6  12
TORSDOF 2
ENDMDL
MODEL 14
REMARK VINA RESULT:      -5.8      7.094      8.600
REMARK  2 active torsions:
REMARK  status: ('A' for Active; 'I' for Inactive)
REMARK       I    between atoms: N_1  and  C_2 
REMARK    1  A    between atoms: C_2  and  C_3 
REMARK    2  A    between atoms: C_8  and  C_9 
REMARK       I    between atoms: C_9  and  N_10 
ROOT
HETATM    1  C   LIG     1      14.236  31.355  15.644  1.00  0.00     0.047 A 
HETATM    2  C   LIG     1      14.405  30.500  14.541  1.00  0.00     0.018 A 
HETATM    3  C   LIG     1      15.490  30.654  13.678  1.00  0.00     0.001 A 
HETATM    4  C   LIG     1      16.416  31.672  13.895  1.00  0.00     0.001 A 
HETATM    5  C   LIG     1      16.262  32.540  14.976  1.00  0.00     0.018 A 
HETATM    6  C   LIG     1      15.182  32.395  15.866  1.00  0.00     0.047 A 
ENDROOT
BRANCH   1   7
HETATM    7  C   LIG     1      13.037  31.165  16.491  1.00  0.00     0.250 C 
HETATM    8  N   LIG     1      12.580  29.849  16.806  1.00  0.00    -0.366 N 
HETATM    9  H   LIG     1      11.756  29.715  17.434  1.00  0.00     0.159 HD
HETATM   10  H   LIG     1      13.042  29.007  16.394  1.00  0.00     0.159 HD
HETATM   11  O   LIG     1      12.439  32.159  16.983  1.00  0.00    -0.268 OA
ENDBRANCH   1   7
BRANCH   6  12
HETATM   12  C   LIG     1      15.052  33.378  16.965  1.00  0.00     0.250 C 
HETATM   13  N   LIG     1      15.186  32.960  18.325  1.00  0.00    -0.366 N 
HETATM   14  H   LIG     1      15.439  31.976  18.560  1.00  0.00     0.159 HD
HETATM   15  H   LIG     1      15.058  33.647  19.101  1.00  0.00     0.159 HD
HETATM   16  O   LIG     1      14.775  34.581  16.715  1.00  0.00    -0.268 OA
ENDBRANCH   6  12
TORSDOF 2
ENDMDL
MODEL 15
REMARK VINA RESULT:      -5.7      2.160      3.253
REMARK  2 active torsions:
REMARK  status: ('A' for Active; 'I' for Inactive)
REMARK       I    between atoms: N_1  and  C_2 
REMARK    1  A    between atoms: C_2  and  C_3 
REMARK    2  A    between atoms: C_8  and  C_9 
REMARK       I    between atoms: C_9  and  N_10 
ROOT
HETATM    1  C   LIG     1      17.825  37.316  21.152  1.00  0.00     0.047 A 
HETATM    2  C   LIG     1      17.560  36.217  20.316  1.00  0.00     0.018 A 
HETATM    3  C   LIG     1      16.794  35.143  20.771  1.00  0.00     0.001 A 
HETATM    4  C   LIG     1      16.292  35.145  22.070  1.00  0.00     0.001 A 
HETATM    5  C   LIG     1      16.552  36.219  22.920  1.00  0.00     0.018 A 
HETATM    6  C   LIG     1      17.312  37.318  22.478  1.00  0.00     0.047 A 
ENDROOT
BRANCH   1   7
HETATM    7  C   LIG     1      18.683  38.399  20.621  1.00  0.00     0.250 C 
HETATM    8  N   LIG     1      19.722  38.102  19.686  1.00  0.00    -0.366 N 
HETATM    9  H   LIG     1      20.303  38.871  19.284  1.00  0.00     0.159 HD
HETATM   10  H   LIG     1      19.932  37.116  19.413  1.00  0.00     0.159 HD
HETATM   11  O   LIG     1      18.475  39.597  20.950  1.00  0.00    -0.268 OA
ENDBRANCH   1   7
BRANCH   6  12
HETATM   12  C   LIG     1      17.589  38.403  23.447  1.00  0.00     0.250 C 
HETATM   13  N   LIG     1      16.795  39.590  23.444  1.00  0.00    -0.366 N 
HETATM   14  H   LIG     1      15.973  39.683  22.808  1.00  0.00     0.159 HD
HETATM   15  H   LIG     1      17.014  40.371  24.102  1.00  0.00     0.159 HD
HETATM   16  O   LIG     1      18.557  38.311  24.247  1.00  0.00    -0.268 OA
ENDBRANCH   6  12
TORSDOF 2
ENDMDL
MODEL 16
REMARK VINA RESULT:      -4.7      4.255      6.118
REMARK  2 active torsions:
REMARK  status: ('A' for Active; 'I' for Inactive)
REMARK       I    between atoms: N_1  and  C_2 
REMARK    1  A    between atoms: C_2  and  C_3 
REMARK    2  A    between atoms: C_8  and  C_9 
REMARK       I    between atoms: C_9  and  N_10 
ROOT
HETATM    1  C   LIG     1      14.960  33.323  18.108  1.00  0.00     0.047 A 
HETATM    2  C   LIG     1      14.617  32.008  17.749  1.00  0.00     0.018 A 
HETATM    3  C   LIG     1      14.531  31.004  18.715  1.00  0.00     0.001 A 
HETATM    4  C   LIG     1      14.797  31.296  20.051  1.00  0.00     0.001 A 
HETATM    5  C   LIG     1      15.151  32.591  20.427  1.00  0.00     0.018 A 
HETATM    6  C   LIG     1      15.232  33.621  19.472  1.00  0.00     0.047 A 
ENDROOT
BRANCH   1   7
HETATM    7  C   LIG     1      15.080  34.328  17.027  1.00  0.00     0.250 C 
HETATM    8  N   LIG     1      16.344  34.573  16.408  1.00  0.00    -0.366 N 
HETATM    9  H   LIG     1      16.420  35.254  15.621  1.00  0.00     0.159 HD
HETATM   10  H   LIG     1      17.209  34.097  16.749  1.00  0.00     0.159 HD
HETATM   11  O   LIG     1      14.061  34.939  16.610  1.00  0.00    -0.268 OA
ENDBRANCH   1   7
BRANCH   6  12
HETATM   12  C   LIG     1      15.659  34.962  19.933  1.00  0.00     0.250 C 
HETATM   13  N   LIG     1      14.824  35.720  20.812  1.00  0.00    -0.366 N 
HETATM   14  H   LIG     1      13.939  35.317  21.190  1.00  0.00     0.159 HD
HETATM   15  H   LIG     1      15.108  36.680  21.107  1.00  0.00     0.159 HD
HETATM   16  O   LIG     1      16.734  35.467  19.518  1.00  0.00    -0.268 OA
ENDBRANCH   6  12
TORSDOF 2
ENDMDL
MODEL 17
REMARK VINA RESULT:      -4.6      2.343      3.806
REMARK  2 active torsions:
REMARK  status: ('A' for Active; 'I' for Inactive)
REMARK       I    between atoms: N_1  and  C_2 
REMARK    1  A    between atoms: C_2  and  C_3 
REMARK    2  A    between atoms: C_8  and  C_9 
REMARK       I    between atoms: C_9  and  N_10 
ROOT
HETATM    1  C   LIG     1      17.243  36.866  24.323  1.00  0.00     0.047 A 
HETATM    2  C   LIG     1      17.453  38.191  24.742  1.00  0.00     0.018 A 
HETATM    3  C   LIG     1      17.275  39.256  23.858  1.00  0.00     0.001 A 
HETATM    4  C   LIG     1      16.896  39.013  22.539  1.00  0.00     0.001 A 
HETATM    5  C   LIG     1      16.693  37.705  22.099  1.00  0.00     0.018 A 
HETATM    6  C   LIG     1      16.856  36.618  22.977  1.00  0.00     0.047 A 
ENDROOT
BRANCH   1   7
HETATM    7  C   LIG     1      17.496  35.782  25.299  1.00  0.00     0.250 C 
HETATM    8  N   LIG     1      16.575  34.697  25.425  1.00  0.00    -0.366 N 
HETATM    9  H   LIG     1      16.773  33.914  26.087  1.00  0.00     0.159 HD
HETATM   10  H   LIG     1      15.684  34.684  24.880  1.00  0.00     0.159 HD
HETATM   11  O   LIG     1      18.547  35.781  25.992  1.00  0.00    -0.268 OA
ENDBRANCH   1   7
BRANCH   6  12
HETATM   12  C   LIG     1      16.670  35.254  22.432  1.00  0.00     0.250 C 
HETATM   13  N   LIG     1      15.371  34.806  22.039  1.00  0.00    -0.366 N 
HETATM   14  H   LIG     1      14.551  35.450  22.069  1.00  0.00     0.159 HD
HETATM   15  H   LIG     1      15.235  33.832  21.689  1.00  0.00     0.159 HD
HETATM   16  O   LIG     1      17.644  34.459  22.355  1.00  0.00    -0.268 OA
ENDBRANCH   6  12
TORSDOF 2
ENDMDL
