REMARK  5 active torsions:
REMARK  status: ('A' for Active; 'I' for Inactive)
REMARK    1  A    between atoms: C_2  and  N_5 
REMARK    2  A    between atoms: N_5  and  C_6 
REMARK    3  A    between atoms: C_8  and  S_9 
REMARK    4  A    between atoms: C_12  and  N_13 
REMARK    5  A    between atoms: N_13  and  C_14 
ROOT
HETATM    1  C   LIG     1      -0.423  -0.451  -0.396  1.00  0.00     0.741 A 
HETATM    2  N   LIG     1      -0.339   0.423   0.640  1.00  0.00    -0.035 NA
HETATM    3  C   LIG     1       0.871   0.802   1.121  1.00  0.00     0.225 A 
HETATM    4  N   LIG     1       2.005   0.304   0.570  1.00  0.00    -0.035 NA
HETATM    5  C   LIG     1       1.932  -0.575  -0.464  1.00  0.00     0.740 A 
HETATM    6  N   LIG     1       0.717  -0.947  -0.944  1.00  0.00     0.130 NA
ENDROOT
BRANCH   1   7
HETATM    7  N   LIG     1      -1.697  -0.859  -0.925  1.00  0.00    -0.214 N 
HETATM    8  H   LIG     1      -1.665  -1.543  -1.716  1.00  0.00     0.178 HD
BRANCH   7   9
HETATM    9  C   LIG     1      -3.015  -0.388  -0.455  1.00  0.00     0.036 C 
HETATM   10  C   LIG     1      -3.134   1.139  -0.631  1.00  0.00     0.038 C 
HETATM   11  C   LIG     1      -3.228  -0.777   1.022  1.00  0.00     0.038 C 
HETATM   12  C   LIG     1      -4.117  -1.063  -1.299  1.00  0.00     0.038 C 
ENDBRANCH   7   9
ENDBRANCH   1   7
BRANCH   5  13
HETATM   13  N   LIG     1       3.123  -1.105  -1.059  1.00  0.00    -0.222 N 
HETATM   14  H   LIG     1       3.032  -1.721  -1.899  1.00  0.00     0.177 HD
BRANCH  13  15
HETATM   15  C   LIG     1       4.464  -0.763  -0.589  1.00  0.00     0.134 C 
HETATM   16  C   LIG     1       4.781  -1.494   0.712  1.00  0.00     0.027 C 
ENDBRANCH  13  15
ENDBRANCH   5  13
BRANCH   3  17
HETATM   17  S   LIG     1       0.969   1.959   2.481  1.00  0.00    -0.093 SA
HETATM   18  C   LIG     1       0.980   3.414   1.389  1.00  0.00     0.099 C 
ENDBRANCH   3  17
TORSDOF 5
