MODEL 1
REMARK VINA RESULT:      -6.8      0.000      0.000
REMARK  5 active torsions:
REMARK  status: ('A' for Active; 'I' for Inactive)
REMARK    1  A    between atoms: C_2  and  N_5 
REMARK    2  A    between atoms: N_5  and  C_6 
REMARK    3  A    between atoms: C_8  and  S_9 
REMARK    4  A    between atoms: C_12  and  N_13 
REMARK    5  A    between atoms: N_13  and  C_14 
ROOT
HETATM    1  C   LIG     1      17.803  36.652  20.464  1.00  0.00     0.741 A 
HETATM    2  N   LIG     1      17.740  37.216  21.698  1.00  0.00    -0.035 NA
HETATM    3  C   LIG     1      16.847  36.766  22.613  1.00  0.00     0.225 A 
HETATM    4  N   LIG     1      16.006  35.751  22.297  1.00  0.00    -0.035 NA
HETATM    5  C   LIG     1      16.057  35.182  21.063  1.00  0.00     0.740 A 
HETATM    6  N   LIG     1      16.957  35.635  20.152  1.00  0.00     0.130 NA
ENDROOT
BRANCH   1   7
HETATM    7  N   LIG     1      18.749  37.110  19.482  1.00  0.00    -0.214 N 
HETATM    8  H   LIG     1      19.141  36.376  18.848  1.00  0.00     0.178 HD
BRANCH   7   9
HETATM    9  C   LIG     1      19.207  38.504  19.313  1.00  0.00     0.036 C 
HETATM   10  C   LIG     1      18.592  39.407  20.400  1.00  0.00     0.038 C 
HETATM   11  C   LIG     1      18.836  39.023  17.909  1.00  0.00     0.038 C 
HETATM   12  C   LIG     1      20.743  38.545  19.456  1.00  0.00     0.038 C 
ENDBRANCH   7   9
ENDBRANCH   1   7
BRANCH   5  13
HETATM   13  N   LIG     1      15.177  34.105  20.717  1.00  0.00    -0.222 N 
HETATM   14  H   LIG     1      14.287  33.994  21.254  1.00  0.00     0.177 HD
BRANCH  13  15
HETATM   15  C   LIG     1      15.435  33.199  19.599  1.00  0.00     0.134 C 
HETATM   16  C   LIG     1      14.993  31.780  19.944  1.00  0.00     0.027 C 
ENDBRANCH  13  15
ENDBRANCH   5  13
BRANCH   3  17
HETATM   17  S   LIG     1      16.779  37.512  24.237  1.00  0.00    -0.093 SA
HETATM   18  C   LIG     1      17.450  36.038  25.065  1.00  0.00     0.099 C 
ENDBRANCH   3  17
TORSDOF 5
ENDMDL
MODEL 2
REMARK VINA RESULT:      -6.8      1.942      5.375
REMARK  5 active torsions:
REMARK  status: ('A' for Active; 'I' for Inactive)
REMARK    1  A    between atoms: C_2  and  N_5 
REMARK    2  A    between atoms: N_5  and  C_6 
REMARK    3  A    between atoms: C_8  and  S_9 
REMARK    4  A    between atoms: C_12  and  N_13 
REMARK    5  A    between atoms: N_13  and  C_14 
ROOT
HETATM    1  C   LIG     1      17.203  35.907  21.502  1.00  0.00     0.741 A 
HETATM    2  N   LIG     1      17.868  36.834  20.766  1.00  0.00    -0.035 NA
HETATM    3  C   LIG     1      18.106  38.070  21.272  1.00  0.00     0.225 A 
HETATM    4  N   LIG     1      17.675  38.386  22.518  1.00  0.00    -0.035 NA
HETATM    5  C   LIG     1      17.004  37.467  23.262  1.00  0.00     0.740 A 
HETATM    6  N   LIG     1      16.773  36.230  22.750  1.00  0.00     0.130 NA
ENDROOT
BRANCH   1   7
HETATM    7  N   LIG     1      16.947  34.589  20.986  1.00  0.00    -0.214 N 
HETATM    8  H   LIG     1      17.741  33.911  21.052  1.00  0.00     0.178 HD
BRANCH   7   9
HETATM    9  C   LIG     1      15.683  34.135  20.373  1.00  0.00     0.036 C 
HETATM   10  C   LIG     1      15.761  32.634  20.030  1.00  0.00     0.038 C 
HETATM   11  C   LIG     1      15.374  34.960  19.107  1.00  0.00     0.038 C 
HETATM   12  C   LIG     1      14.534  34.345  21.383  1.00  0.00     0.038 C 
ENDBRANCH   7   9
ENDBRANCH   1   7
BRANCH   5  13
HETATM   13  N   LIG     1      16.548  37.786  24.582  1.00  0.00    -0.222 N 
HETATM   14  H   LIG     1      15.520  37.781  24.772  1.00  0.00     0.177 HD
BRANCH  13  15
HETATM   15  C   LIG     1      17.459  38.047  25.694  1.00  0.00     0.134 C 
HETATM   16  C   LIG     1      18.272  36.799  26.028  1.00  0.00     0.027 C 
ENDBRANCH  13  15
ENDBRANCH   5  13
BRANCH   3  17
HETATM   17  S   LIG     1      18.989  39.280  20.296  1.00  0.00    -0.093 SA
HETATM   18  C   LIG     1      19.047  38.214  18.823  1.00  0.00     0.099 C 
ENDBRANCH   3  17
TORSDOF 5
ENDMDL
MODEL 3
REMARK VINA RESULT:      -6.8      2.005      4.133
REMARK  5 active torsions:
REMARK  status: ('A' for Active; 'I' for Inactive)
REMARK    1  A    between atoms: C_2  and  N_5 
REMARK    2  A    between atoms: N_5  and  C_6 
REMARK    3  A    between atoms: C_8  and  S_9 
REMARK    4  A    between atoms: C_12  and  N_13 
REMARK    5  A    between atoms: N_13  and  C_14 
ROOT
HETATM    1  C   LIG     1      18.008  38.260  21.751  1.00  0.00     0.741 A 
HETATM    2  N   LIG     1      17.017  37.440  21.316  1.00  0.00    -0.035 NA
HETATM    3  C   LIG     1      16.234  36.780  22.205  1.00  0.00     0.225 A 
HETATM    4  N   LIG     1      16.442  36.933  23.536  1.00  0.00    -0.035 NA
HETATM    5  C   LIG     1      17.435  37.748  23.981  1.00  0.00     0.740 A 
HETATM    6  N   LIG     1      18.212  38.410  23.086  1.00  0.00     0.130 NA
ENDROOT
BRANCH   1   7
HETATM    7  N   LIG     1      18.844  38.975  20.823  1.00  0.00    -0.214 N 
HETATM    8  H   LIG     1      19.088  39.956  21.092  1.00  0.00     0.178 HD
BRANCH   7   9
HETATM    9  C   LIG     1      19.362  38.445  19.546  1.00  0.00     0.036 C 
HETATM   10  C   LIG     1      18.661  39.130  18.356  1.00  0.00     0.038 C 
HETATM   11  C   LIG     1      19.163  36.917  19.480  1.00  0.00     0.038 C 
HETATM   12  C   LIG     1      20.874  38.742  19.458  1.00  0.00     0.038 C 
ENDBRANCH   7   9
ENDBRANCH   1   7
BRANCH   5  13
HETATM   13  N   LIG     1      17.662  37.923  25.385  1.00  0.00    -0.222 N 
HETATM   14  H   LIG     1      17.080  38.620  25.904  1.00  0.00     0.177 HD
BRANCH  13  15
HETATM   15  C   LIG     1      18.621  37.118  26.140  1.00  0.00     0.134 C 
HETATM   16  C   LIG     1      18.056  35.729  26.417  1.00  0.00     0.027 C 
ENDBRANCH  13  15
ENDBRANCH   5  13
BRANCH   3  17
HETATM   17  S   LIG     1      14.927  35.708  21.621  1.00  0.00    -0.093 SA
HETATM   18  C   LIG     1      16.083  34.531  20.854  1.00  0.00     0.099 C 
ENDBRANCH   3  17
TORSDOF 5
ENDMDL
MODEL 4
REMARK VINA RESULT:      -6.6      1.265      1.786
REMARK  5 active torsions:
REMARK  status: ('A' for Active; 'I' for Inactive)
REMARK    1  A    between atoms: C_2  and  N_5 
REMARK    2  A    between atoms: N_5  and  C_6 
REMARK    3  A    between atoms: C_8  and  S_9 
REMARK    4  A    between atoms: C_12  and  N_13 
REMARK    5  A    between atoms: N_13  and  C_14 
ROOT
HETATM    1  C   LIG     1      17.787  38.054  21.554  1.00  0.00     0.741 A 
HETATM    2  N   LIG     1      17.853  38.397  22.866  1.00  0.00    -0.035 NA
HETATM    3  C   LIG     1      17.327  37.584  23.815  1.00  0.00     0.225 A 
HETATM    4  N   LIG     1      16.725  36.424  23.454  1.00  0.00    -0.035 NA
HETATM    5  C   LIG     1      16.649  36.073  22.143  1.00  0.00     0.740 A 
HETATM    6  N   LIG     1      17.183  36.890  21.198  1.00  0.00     0.130 NA
ENDROOT
BRANCH   1   7
HETATM    7  N   LIG     1      18.347  38.900  20.533  1.00  0.00    -0.214 N 
HETATM    8  H   LIG     1      18.143  39.922  20.625  1.00  0.00     0.178 HD
BRANCH   7   9
HETATM    9  C   LIG     1      19.159  38.444  19.387  1.00  0.00     0.036 C 
HETATM   10  C   LIG     1      18.973  36.930  19.166  1.00  0.00     0.038 C 
HETATM   11  C   LIG     1      20.647  38.776  19.619  1.00  0.00     0.038 C 
HETATM   12  C   LIG     1      18.689  39.184  18.117  1.00  0.00     0.038 C 
ENDBRANCH   7   9
ENDBRANCH   1   7
BRANCH   5  13
HETATM   13  N   LIG     1      16.020  34.847  21.749  1.00  0.00    -0.222 N 
HETATM   14  H   LIG     1      15.736  34.169  22.492  1.00  0.00     0.177 HD
BRANCH  13  15
HETATM   15  C   LIG     1      15.692  34.536  20.359  1.00  0.00     0.134 C 
HETATM   16  C   LIG     1      15.450  33.040  20.186  1.00  0.00     0.027 C 
ENDBRANCH  13  15
ENDBRANCH   5  13
BRANCH   3  17
HETATM   17  S   LIG     1      17.427  38.042  25.540  1.00  0.00    -0.093 SA
HETATM   18  C   LIG     1      18.037  36.408  26.055  1.00  0.00     0.099 C 
ENDBRANCH   3  17
TORSDOF 5
ENDMDL
MODEL 5
REMARK VINA RESULT:      -6.3      1.665      4.048
REMARK  5 active torsions:
REMARK  status: ('A' for Active; 'I' for Inactive)
REMARK    1  A    between atoms: C_2  and  N_5 
REMARK    2  A    between atoms: N_5  and  C_6 
REMARK    3  A    between atoms: C_8  and  S_9 
REMARK    4  A    between atoms: C_12  and  N_13 
REMARK    5  A    between atoms: N_13  and  C_14 
ROOT
HETATM    1  C   LIG     1      17.891  36.756  20.626  1.00  0.00     0.741 A 
HETATM    2  N   LIG     1      17.153  35.656  20.328  1.00  0.00    -0.035 NA
HETATM    3  C   LIG     1      16.130  35.277  21.133  1.00  0.00     0.225 A 
HETATM    4  N   LIG     1      15.843  35.994  22.247  1.00  0.00    -0.035 NA
HETATM    5  C   LIG     1      16.578  37.094  22.558  1.00  0.00     0.740 A 
HETATM    6  N   LIG     1      17.598  37.472  21.744  1.00  0.00     0.130 NA
ENDROOT
BRANCH   1   7
HETATM    7  N   LIG     1      18.974  37.179  19.780  1.00  0.00    -0.214 N 
HETATM    8  H   LIG     1      19.553  36.414  19.362  1.00  0.00     0.178 HD
BRANCH   7   9
HETATM    9  C   LIG     1      19.330  38.578  19.472  1.00  0.00     0.036 C 
HETATM   10  C   LIG     1      20.861  38.734  19.374  1.00  0.00     0.038 C 
HETATM   11  C   LIG     1      18.762  39.526  20.548  1.00  0.00     0.038 C 
HETATM   12  C   LIG     1      18.713  38.963  18.111  1.00  0.00     0.038 C 
ENDBRANCH   7   9
ENDBRANCH   1   7
BRANCH   5  13
HETATM   13  N   LIG     1      16.282  37.865  23.729  1.00  0.00    -0.222 N 
HETATM   14  H   LIG     1      15.289  38.136  23.913  1.00  0.00     0.177 HD
BRANCH  13  15
HETATM   15  C   LIG     1      17.297  38.227  24.717  1.00  0.00     0.134 C 
HETATM   16  C   LIG     1      17.683  37.016  25.560  1.00  0.00     0.027 C 
ENDBRANCH  13  15
ENDBRANCH   5  13
BRANCH   3  17
HETATM   17  S   LIG     1      15.161  33.830  20.726  1.00  0.00    -0.093 SA
HETATM   18  C   LIG     1      15.415  34.027  18.935  1.00  0.00     0.099 C 
ENDBRANCH   3  17
TORSDOF 5
ENDMDL
MODEL 6
REMARK VINA RESULT:      -6.1      7.103      8.598
REMARK  5 active torsions:
REMARK  status: ('A' for Active; 'I' for Inactive)
REMARK    1  A    between atoms: C_2  and  N_5 
REMARK    2  A    between atoms: N_5  and  C_6 
REMARK    3  A    between atoms: C_8  and  S_9 
REMARK    4  A    between atoms: C_12  and  N_13 
REMARK    5  A    between atoms: N_13  and  C_14 
ROOT
HETATM    1  C   LIG     1      17.302  33.481  13.087  1.00  0.00     0.741 A 
HETATM    2  N   LIG     1      16.776  32.237  12.946  1.00  0.00    -0.035 NA
HETATM    3  C   LIG     1      16.049  31.682  13.947  1.00  0.00     0.225 A 
HETATM    4  N   LIG     1      15.847  32.369  15.098  1.00  0.00    -0.035 NA
HETATM    5  C   LIG     1      16.372  33.613  15.252  1.00  0.00     0.740 A 
HETATM    6  N   LIG     1      17.096  34.164  14.243  1.00  0.00     0.130 NA
ENDROOT
BRANCH   1   7
HETATM    7  N   LIG     1      18.069  34.090  12.034  1.00  0.00    -0.214 N 
HETATM    8  H   LIG     1      17.588  34.849  11.498  1.00  0.00     0.178 HD
BRANCH   7   9
HETATM    9  C   LIG     1      19.448  33.725  11.652  1.00  0.00     0.036 C 
HETATM   10  C   LIG     1      19.468  32.345  10.964  1.00  0.00     0.038 C 
HETATM   11  C   LIG     1      20.364  33.719  12.893  1.00  0.00     0.038 C 
HETATM   12  C   LIG     1      19.986  34.774  10.656  1.00  0.00     0.038 C 
ENDBRANCH   7   9
ENDBRANCH   1   7
BRANCH   5  13
HETATM   13  N   LIG     1      16.162  34.351  16.461  1.00  0.00    -0.222 N 
HETATM   14  H   LIG     1      16.865  35.076  16.735  1.00  0.00     0.177 HD
BRANCH  13  15
HETATM   15  C   LIG     1      14.971  34.190  17.292  1.00  0.00     0.134 C 
HETATM   16  C   LIG     1      15.188  33.100  18.338  1.00  0.00     0.027 C 
ENDBRANCH  13  15
ENDBRANCH   5  13
BRANCH   3  17
HETATM   17  S   LIG     1      15.356  30.046  13.747  1.00  0.00    -0.093 SA
HETATM   18  C   LIG     1      14.071  30.314  15.006  1.00  0.00     0.099 C 
ENDBRANCH   3  17
TORSDOF 5
ENDMDL
MODEL 7
REMARK VINA RESULT:      -5.8      1.571      5.145
REMARK  5 active torsions:
REMARK  status: ('A' for Active; 'I' for Inactive)
REMARK    1  A    between atoms: C_2  and  N_5 
REMARK    2  A    between atoms: N_5  and  C_6 
REMARK    3  A    between atoms: C_8  and  S_9 
REMARK    4  A    between atoms: C_12  and  N_13 
REMARK    5  A    between atoms: N_13  and  C_14 
ROOT
HETATM    1  C   LIG     1      17.720  36.839  20.223  1.00  0.00     0.741 A 
HETATM    2  N   LIG     1      17.769  37.371  21.471  1.00  0.00    -0.035 NA
HETATM    3  C   LIG     1      18.424  38.537  21.694  1.00  0.00     0.225 A 
HETATM    4  N   LIG     1      19.037  39.176  20.668  1.00  0.00    -0.035 NA
HETATM    5  C   LIG     1      18.998  38.650  19.415  1.00  0.00     0.740 A 
HETATM    6  N   LIG     1      18.337  37.484  19.198  1.00  0.00     0.130 NA
ENDROOT
BRANCH   1   7
HETATM    7  N   LIG     1      17.024  35.606  19.965  1.00  0.00    -0.214 N 
HETATM    8  H   LIG     1      17.198  35.170  19.030  1.00  0.00     0.178 HD
BRANCH   7   9
HETATM    9  C   LIG     1      16.096  34.931  20.894  1.00  0.00     0.036 C 
HETATM   10  C   LIG     1      15.667  33.564  20.326  1.00  0.00     0.038 C 
HETATM   11  C   LIG     1      14.860  35.816  21.153  1.00  0.00     0.038 C 
HETATM   12  C   LIG     1      16.816  34.697  22.238  1.00  0.00     0.038 C 
ENDBRANCH   7   9
ENDBRANCH   1   7
BRANCH   5  13
HETATM   13  N   LIG     1      19.637  39.318  18.321  1.00  0.00    -0.222 N 
HETATM   14  H   LIG     1      20.581  39.742  18.475  1.00  0.00     0.177 HD
BRANCH  13  15
HETATM   15  C   LIG     1      19.063  39.369  16.978  1.00  0.00     0.134 C 
HETATM   16  C   LIG     1      17.975  40.435  16.898  1.00  0.00     0.027 C 
ENDBRANCH  13  15
ENDBRANCH   5  13
BRANCH   3  17
HETATM   17  S   LIG     1      18.476  39.231  23.341  1.00  0.00    -0.093 SA
HETATM   18  C   LIG     1      17.226  38.078  23.988  1.00  0.00     0.099 C 
ENDBRANCH   3  17
TORSDOF 5
ENDMDL
MODEL 8
REMARK VINA RESULT:      -5.7      6.022      7.822
REMARK  5 active torsions:
REMARK  status: ('A' for Active; 'I' for Inactive)
REMARK    1  A    between atoms: C_2  and  N_5 
REMARK    2  A    between atoms: N_5  and  C_6 
REMARK    3  A    between atoms: C_8  and  S_9 
REMARK    4  A    between atoms: C_12  and  N_13 
REMARK    5  A    between atoms: N_13  and  C_14 
ROOT
HETATM    1  C   LIG     1      16.507  32.209  15.521  1.00  0.00     0.741 A 
HETATM    2  N   LIG     1      15.778  31.301  14.822  1.00  0.00    -0.035 NA
HETATM    3  C   LIG     1      14.599  30.845  15.312  1.00  0.00     0.225 A 
HETATM    4  N   LIG     1      14.144  31.292  16.508  1.00  0.00    -0.035 NA
HETATM    5  C   LIG     1      14.867  32.197  17.217  1.00  0.00     0.740 A 
HETATM    6  N   LIG     1      16.046  32.654  16.719  1.00  0.00     0.130 NA
ENDROOT
BRANCH   1   7
HETATM    7  N   LIG     1      17.756  32.711  15.014  1.00  0.00    -0.214 N 
HETATM    8  H   LIG     1      18.618  32.343  15.480  1.00  0.00     0.178 HD
BRANCH   7   9
HETATM    9  C   LIG     1      17.910  33.691  13.920  1.00  0.00     0.036 C 
HETATM   10  C   LIG     1      16.969  33.342  12.750  1.00  0.00     0.038 C 
HETATM   11  C   LIG     1      19.375  33.731  13.439  1.00  0.00     0.038 C 
HETATM   12  C   LIG     1      17.534  35.092  14.448  1.00  0.00     0.038 C 
ENDBRANCH   7   9
ENDBRANCH   1   7
BRANCH   5  13
HETATM   13  N   LIG     1      14.395  32.682  18.481  1.00  0.00    -0.222 N 
HETATM   14  H   LIG     1      13.465  33.158  18.519  1.00  0.00     0.177 HD
BRANCH  13  15
HETATM   15  C   LIG     1      15.123  32.475  19.731  1.00  0.00     0.134 C 
HETATM   16  C   LIG     1      14.903  31.059  20.254  1.00  0.00     0.027 C 
ENDBRANCH  13  15
ENDBRANCH   5  13
BRANCH   3  17
HETATM   17  S   LIG     1      13.645  29.654  14.379  1.00  0.00    -0.093 SA
HETATM   18  C   LIG     1      15.114  28.712  13.865  1.00  0.00     0.099 C 
ENDBRANCH   3  17
TORSDOF 5
ENDMDL
MODEL 9
REMARK VINA RESULT:      -5.7      6.548      8.797
REMARK  5 active torsions:
REMARK  status: ('A' for Active; 'I' for Inactive)
REMARK    1  A    between atoms: C_2  and  N_5 
REMARK    2  A    between atoms: N_5  and  C_6 
REMARK    3  A    between atoms: C_8  and  S_9 
REMARK    4  A    between atoms: C_12  and  N_13 
REMARK    5  A    between atoms: N_13  and  C_14 
ROOT
HETATM    1  C   LIG     1      16.267  32.331  15.574  1.00  0.00     0.741 A 
HETATM    2  N   LIG     1      16.917  33.239  14.801  1.00  0.00    -0.035 NA
HETATM    3  C   LIG     1      17.014  33.054  13.461  1.00  0.00     0.225 A 
HETATM    4  N   LIG     1      16.463  31.957  12.887  1.00  0.00    -0.035 NA
HETATM    5  C   LIG     1      15.814  31.040  13.652  1.00  0.00     0.740 A 
HETATM    6  N   LIG     1      15.717  31.233  14.993  1.00  0.00     0.130 NA
ENDROOT
BRANCH   1   7
HETATM    7  N   LIG     1      16.147  32.514  16.996  1.00  0.00    -0.214 N 
HETATM    8  H   LIG     1      17.016  32.342  17.553  1.00  0.00     0.178 HD
BRANCH   7   9
HETATM    9  C   LIG     1      14.917  32.904  17.714  1.00  0.00     0.036 C 
HETATM   10  C   LIG     1      15.139  32.834  19.238  1.00  0.00     0.038 C 
HETATM   11  C   LIG     1      13.743  31.994  17.299  1.00  0.00     0.038 C 
HETATM   12  C   LIG     1      14.561  34.358  17.339  1.00  0.00     0.038 C 
ENDBRANCH   7   9
ENDBRANCH   1   7
BRANCH   5  13
HETATM   13  N   LIG     1      15.224  29.877  13.058  1.00  0.00    -0.222 N 
HETATM   14  H   LIG     1      15.181  29.815  12.015  1.00  0.00     0.177 HD
BRANCH  13  15
HETATM   15  C   LIG     1      14.745  28.742  13.843  1.00  0.00     0.134 C 
HETATM   16  C   LIG     1      15.481  27.465  13.448  1.00  0.00     0.027 C 
ENDBRANCH  13  15
ENDBRANCH   5  13
BRANCH   3  17
HETATM   17  S   LIG     1      17.866  34.260  12.452  1.00  0.00    -0.093 SA
HETATM   18  C   LIG     1      19.029  33.036  11.774  1.00  0.00     0.099 C 
ENDBRANCH   3  17
TORSDOF 5
ENDMDL
MODEL 10
REMARK VINA RESULT:      -5.7      5.341      7.929
REMARK  5 active torsions:
REMARK  status: ('A' for Active; 'I' for Inactive)
REMARK    1  A    between atoms: C_2  and  N_5 
REMARK    2  A    between atoms: N_5  and  C_6 
REMARK    3  A    between atoms: C_8  and  S_9 
REMARK    4  A    between atoms: C_12  and  N_13 
REMARK    5  A    between atoms: N_13  and  C_14 
ROOT
HETATM    1  C   LIG     1      14.801  32.320  17.282  1.00  0.00     0.741 A 
HETATM    2  N   LIG     1      15.728  33.155  16.746  1.00  0.00    -0.035 NA
HETATM    3  C   LIG     1      16.214  32.930  15.499  1.00  0.00     0.225 A 
HETATM    4  N   LIG     1      15.777  31.865  14.784  1.00  0.00    -0.035 NA
HETATM    5  C   LIG     1      14.853  31.021  15.313  1.00  0.00     0.740 A 
HETATM    6  N   LIG     1      14.367  31.254  16.560  1.00  0.00     0.130 NA
ENDROOT
BRANCH   1   7
HETATM    7  N   LIG     1      14.269  32.546  18.599  1.00  0.00    -0.214 N 
HETATM    8  H   LIG     1      13.243  32.747  18.648  1.00  0.00     0.178 HD
BRANCH   7   9
HETATM    9  C   LIG     1      15.043  32.527  19.856  1.00  0.00     0.036 C 
HETATM   10  C   LIG     1      14.134  32.148  21.042  1.00  0.00     0.038 C 
HETATM   11  C   LIG     1      15.702  33.900  20.100  1.00  0.00     0.038 C 
HETATM   12  C   LIG     1      16.159  31.467  19.739  1.00  0.00     0.038 C 
ENDBRANCH   7   9
ENDBRANCH   1   7
BRANCH   5  13
HETATM   13  N   LIG     1      14.379  29.894  14.566  1.00  0.00    -0.222 N 
HETATM   14  H   LIG     1      13.356  29.679  14.578  1.00  0.00     0.177 HD
BRANCH  13  15
HETATM   15  C   LIG     1      15.252  29.074  13.728  1.00  0.00     0.134 C 
HETATM   16  C   LIG     1      14.756  27.632  13.683  1.00  0.00     0.027 C 
ENDBRANCH  13  15
ENDBRANCH   5  13
BRANCH   3  17
HETATM   17  S   LIG     1      17.429  34.041  14.801  1.00  0.00    -0.093 SA
HETATM   18  C   LIG     1      17.424  33.209  13.183  1.00  0.00     0.099 C 
ENDBRANCH   3  17
TORSDOF 5
ENDMDL
MODEL 11
REMARK VINA RESULT:      -5.7      4.547      6.728
REMARK  5 active torsions:
REMARK  status: ('A' for Active; 'I' for Inactive)
REMARK    1  A    between atoms: C_2  and  N_5 
REMARK    2  A    between atoms: N_5  and  C_6 
REMARK    3  A    between atoms: C_8  and  S_9 
REMARK    4  A    between atoms: C_12  and  N_13 
REMARK    5  A    between atoms: N_13  and  C_14 
ROOT
HETATM    1  C   LIG     1      15.324  34.162  17.714  1.00  0.00     0.741 A 
HETATM    2  N   LIG     1      16.178  34.290  16.667  1.00  0.00    -0.035 NA
HETATM    3  C   LIG     1      16.237  33.332  15.709  1.00  0.00     0.225 A 
HETATM    4  N   LIG     1      15.443  32.237  15.796  1.00  0.00    -0.035 NA
HETATM    5  C   LIG     1      14.587  32.097  16.843  1.00  0.00     0.740 A 
HETATM    6  N   LIG     1      14.530  33.062  17.797  1.00  0.00     0.130 NA
ENDROOT
BRANCH   1   7
HETATM    7  N   LIG     1      15.241  35.171  18.736  1.00  0.00    -0.214 N 
HETATM    8  H   LIG     1      14.818  36.083  18.445  1.00  0.00     0.178 HD
BRANCH   7   9
HETATM    9  C   LIG     1      15.708  35.025  20.129  1.00  0.00     0.036 C 
HETATM   10  C   LIG     1      17.051  35.758  20.325  1.00  0.00     0.038 C 
HETATM   11  C   LIG     1      15.852  33.534  20.494  1.00  0.00     0.038 C 
HETATM   12  C   LIG     1      14.666  35.659  21.075  1.00  0.00     0.038 C 
ENDBRANCH   7   9
ENDBRANCH   1   7
BRANCH   5  13
HETATM   13  N   LIG     1      13.738  30.947  16.945  1.00  0.00    -0.222 N 
HETATM   14  H   LIG     1      13.787  30.363  17.811  1.00  0.00     0.177 HD
BRANCH  13  15
HETATM   15  C   LIG     1      12.753  30.595  15.924  1.00  0.00     0.134 C 
HETATM   16  C   LIG     1      13.405  29.793  14.802  1.00  0.00     0.027 C 
ENDBRANCH  13  15
ENDBRANCH   5  13
BRANCH   3  17
HETATM   17  S   LIG     1      17.362  33.515  14.331  1.00  0.00    -0.093 SA
HETATM   18  C   LIG     1      16.426  32.370  13.271  1.00  0.00     0.099 C 
ENDBRANCH   3  17
TORSDOF 5
ENDMDL
MODEL 12
REMARK VINA RESULT:      -5.1      6.690      9.770
REMARK  5 active torsions:
REMARK  status: ('A' for Active; 'I' for Inactive)
REMARK    1  A    between atoms: C_2  and  N_5 
REMARK    2  A    between atoms: N_5  and  C_6 
REMARK    3  A    between atoms: C_8  and  S_9 
REMARK    4  A    between atoms: C_12  and  N_13 
REMARK    5  A    between atoms: N_13  and  C_14 
ROOT
HETATM    1  C   LIG     1      15.352  30.716  13.984  1.00  0.00     0.741 A 
HETATM    2  N   LIG     1      16.288  31.646  13.665  1.00  0.00    -0.035 NA
HETATM    3  C   LIG     1      16.590  32.642  14.535  1.00  0.00     0.225 A 
HETATM    4  N   LIG     1      15.952  32.715  15.728  1.00  0.00    -0.035 NA
HETATM    5  C   LIG     1      15.009  31.792  16.055  1.00  0.00     0.740 A 
HETATM    6  N   LIG     1      14.715  30.795  15.181  1.00  0.00     0.130 NA
ENDROOT
BRANCH   1   7
HETATM    7  N   LIG     1      15.024  29.648  13.078  1.00  0.00    -0.214 N 
HETATM    8  H   LIG     1      14.652  29.940  12.144  1.00  0.00     0.178 HD
BRANCH   7   9
HETATM    9  C   LIG     1      15.158  28.206  13.362  1.00  0.00     0.036 C 
HETATM   10  C   LIG     1      15.681  27.459  12.119  1.00  0.00     0.038 C 
HETATM   11  C   LIG     1      13.803  27.620  13.811  1.00  0.00     0.038 C 
HETATM   12  C   LIG     1      16.173  28.015  14.509  1.00  0.00     0.038 C 
ENDBRANCH   7   9
ENDBRANCH   1   7
BRANCH   5  13
HETATM   13  N   LIG     1      14.331  31.854  17.316  1.00  0.00    -0.222 N 
HETATM   14  H   LIG     1      13.377  31.433  17.393  1.00  0.00     0.177 HD
BRANCH  13  15
HETATM   15  C   LIG     1      14.943  32.415  18.519  1.00  0.00     0.134 C 
HETATM   16  C   LIG     1      14.779  31.462  19.700  1.00  0.00     0.027 C 
ENDBRANCH  13  15
ENDBRANCH   5  13
BRANCH   3  17
HETATM   17  S   LIG     1      17.831  33.857  14.107  1.00  0.00    -0.093 SA
HETATM   18  C   LIG     1      18.154  33.116  12.477  1.00  0.00     0.099 C 
ENDBRANCH   3  17
TORSDOF 5
ENDMDL
MODEL 13
REMARK VINA RESULT:      -4.5     17.709     19.595
REMARK  5 active torsions:
REMARK  status: ('A' for Active; 'I' for Inactive)
REMARK    1  A    between atoms: C_2  and  N_5 
REMARK    2  A    between atoms: N_5  and  C_6 
REMARK    3  A    between atoms: C_8  and  S_9 
REMARK    4  A    between atoms: C_12  and  N_13 
REMARK    5  A    between atoms: N_13  and  C_14 
ROOT
HETATM    1  C   LIG     1      27.357  28.648  35.901  1.00  0.00     0.741 A 
HETATM    2  N   LIG     1      27.561  27.526  36.638  1.00  0.00    -0.035 NA
HETATM    3  C   LIG     1      27.282  26.304  36.119  1.00  0.00     0.225 A 
HETATM    4  N   LIG     1      26.792  26.199  34.860  1.00  0.00    -0.035 NA
HETATM    5  C   LIG     1      26.580  27.316  34.115  1.00  0.00     0.740 A 
HETATM    6  N   LIG     1      26.865  28.536  34.639  1.00  0.00     0.130 NA
ENDROOT
BRANCH   1   7
HETATM    7  N   LIG     1      27.654  29.952  36.431  1.00  0.00    -0.214 N 
HETATM    8  H   LIG     1      28.664  30.224  36.435  1.00  0.00     0.178 HD
BRANCH   7   9
HETATM    9  C   LIG     1      26.665  30.909  36.967  1.00  0.00     0.036 C 
HETATM   10  C   LIG     1      25.792  31.474  35.829  1.00  0.00     0.038 C 
HETATM   11  C   LIG     1      27.378  32.053  37.716  1.00  0.00     0.038 C 
HETATM   12  C   LIG     1      25.747  30.172  37.965  1.00  0.00     0.038 C 
ENDBRANCH   7   9
ENDBRANCH   1   7
BRANCH   5  13
HETATM   13  N   LIG     1      26.067  27.219  32.781  1.00  0.00    -0.222 N 
HETATM   14  H   LIG     1      25.035  27.119  32.646  1.00  0.00     0.177 HD
BRANCH  13  15
HETATM   15  C   LIG     1      26.915  27.328  31.596  1.00  0.00     0.134 C 
HETATM   16  C   LIG     1      27.252  25.946  31.045  1.00  0.00     0.027 C 
ENDBRANCH  13  15
ENDBRANCH   5  13
BRANCH   3  17
HETATM   17  S   LIG     1      27.562  24.834  37.097  1.00  0.00    -0.093 SA
HETATM   18  C   LIG     1      26.205  23.915  36.308  1.00  0.00     0.099 C 
ENDBRANCH   3  17
TORSDOF 5
ENDMDL
MODEL 14
REMARK VINA RESULT:      -4.4     14.731     15.440
REMARK  5 active torsions:
REMARK  status: ('A' for Active; 'I' for Inactive)
REMARK    1  A    between atoms: C_2  and  N_5 
REMARK    2  A    between atoms: N_5  and  C_6 
REMARK    3  A    between atoms: C_8  and  S_9 
REMARK    4  A    between atoms: C_12  and  N_13 
REMARK    5  A    between atoms: N_13  and  C_14 
ROOT
HETATM    1  C   LIG     1      26.647  24.989  19.564  1.00  0.00     0.741 A 
HETATM    2  N   LIG     1      26.860  24.504  20.814  1.00  0.00    -0.035 NA
HETATM    3  C   LIG     1      26.292  23.335  21.202  1.00  0.00     0.225 A 
HETATM    4  N   LIG     1      25.504  22.646  20.341  1.00  0.00    -0.035 NA
HETATM    5  C   LIG     1      25.281  23.125  19.089  1.00  0.00     0.740 A 
HETATM    6  N   LIG     1      25.856  24.294  18.705  1.00  0.00     0.130 NA
ENDROOT
BRANCH   1   7
HETATM    7  N   LIG     1      27.247  26.223  19.131  1.00  0.00    -0.214 N 
HETATM    8  H   LIG     1      26.654  27.078  19.232  1.00  0.00     0.178 HD
BRANCH   7   9
HETATM    9  C   LIG     1      28.600  26.368  18.558  1.00  0.00     0.036 C 
HETATM   10  C   LIG     1      28.775  25.430  17.347  1.00  0.00     0.038 C 
HETATM   11  C   LIG     1      29.670  26.069  19.628  1.00  0.00     0.038 C 
HETATM   12  C   LIG     1      28.786  27.823  18.078  1.00  0.00     0.038 C 
ENDBRANCH   7   9
ENDBRANCH   1   7
BRANCH   5  13
HETATM   13  N   LIG     1      24.454  22.404  18.167  1.00  0.00    -0.222 N 
HETATM   14  H   LIG     1      24.839  22.175  17.222  1.00  0.00     0.177 HD
BRANCH  13  15
HETATM   15  C   LIG     1      23.123  21.910  18.514  1.00  0.00     0.134 C 
HETATM   16  C   LIG     1      22.927  20.487  18.001  1.00  0.00     0.027 C 
ENDBRANCH  13  15
ENDBRANCH   5  13
BRANCH   3  17
HETATM   17  S   LIG     1      26.585  22.704  22.850  1.00  0.00    -0.093 SA
HETATM   18  C   LIG     1      24.812  22.602  23.247  1.00  0.00     0.099 C 
ENDBRANCH   3  17
TORSDOF 5
ENDMDL
MODEL 15
REMARK VINA RESULT:      -4.3     14.664     16.735
REMARK  5 active torsions:
REMARK  status: ('A' for Active; 'I' for Inactive)
REMARK    1  A    between atoms: C_2  and  N_5 
REMARK    2  A    between atoms: N_5  and  C_6 
REMARK    3  A    between atoms: C_8  and  S_9 
REMARK    4  A    between atoms: C_12  and  N_13 
REMARK    5  A    between atoms: N_13  and  C_14 
ROOT
HETATM    1  C   LIG     1      25.442  23.143  20.104  1.00  0.00     0.741 A 
HETATM    2  N   LIG     1      26.035  22.237  19.284  1.00  0.00    -0.035 NA
HETATM    3  C   LIG     1      26.986  22.631  18.401  1.00  0.00     0.225 A 
HETATM    4  N   LIG     1      27.346  23.936  18.330  1.00  0.00    -0.035 NA
HETATM    5  C   LIG     1      26.755  24.851  19.143  1.00  0.00     0.740 A 
HETATM    6  N   LIG     1      25.807  24.450  20.028  1.00  0.00     0.130 NA
ENDROOT
BRANCH   1   7
HETATM    7  N   LIG     1      24.437  22.743  21.052  1.00  0.00    -0.214 N 
HETATM    8  H   LIG     1      24.639  22.969  22.054  1.00  0.00     0.178 HD
BRANCH   7   9
HETATM    9  C   LIG     1      23.177  22.046  20.728  1.00  0.00     0.036 C 
HETATM   10  C   LIG     1      23.164  20.639  21.359  1.00  0.00     0.038 C 
HETATM   11  C   LIG     1      22.994  21.951  19.200  1.00  0.00     0.038 C 
HETATM   12  C   LIG     1      21.996  22.851  21.310  1.00  0.00     0.038 C 
ENDBRANCH   7   9
ENDBRANCH   1   7
BRANCH   5  13
HETATM   13  N   LIG     1      27.130  26.233  19.082  1.00  0.00    -0.222 N 
HETATM   14  H   LIG     1      26.376  26.957  19.068  1.00  0.00     0.177 HD
BRANCH  13  15
HETATM   15  C   LIG     1      28.522  26.680  19.114  1.00  0.00     0.134 C 
HETATM   16  C   LIG     1      28.776  27.726  18.034  1.00  0.00     0.027 C 
ENDBRANCH  13  15
ENDBRANCH   5  13
BRANCH   3  17
HETATM   17  S   LIG     1      27.765  21.428  17.331  1.00  0.00    -0.093 SA
HETATM   18  C   LIG     1      26.272  20.394  17.221  1.00  0.00     0.099 C 
ENDBRANCH   3  17
TORSDOF 5
ENDMDL
MODEL 16
REMARK VINA RESULT:      -4.3     15.046     16.855
REMARK  5 active torsions:
REMARK  status: ('A' for Active; 'I' for Inactive)
REMARK    1  A    between atoms: C_2  and  N_5 
REMARK    2  A    between atoms: N_5  and  C_6 
REMARK    3  A    between atoms: C_8  and  S_9 
REMARK    4  A    between atoms: C_12  and  N_13 
REMARK    5  A    between atoms: N_13  and  C_14 
ROOT
HETATM    1  C   LIG     1      23.561  21.889  18.815  1.00  0.00     0.741 A 
HETATM    2  N   LIG     1      24.594  22.559  18.242  1.00  0.00    -0.035 NA
HETATM    3  C   LIG     1      25.423  23.320  18.999  1.00  0.00     0.225 A 
HETATM    4  N   LIG     1      25.219  23.418  20.336  1.00  0.00    -0.035 NA
HETATM    5  C   LIG     1      24.186  22.755  20.919  1.00  0.00     0.740 A 
HETATM    6  N   LIG     1      23.362  21.992  20.155  1.00  0.00     0.130 NA
ENDROOT
BRANCH   1   7
HETATM    7  N   LIG     1      22.676  21.071  18.030  1.00  0.00    -0.214 N 
HETATM    8  H   LIG     1      21.844  21.559  17.623  1.00  0.00     0.178 HD
BRANCH   7   9
HETATM    9  C   LIG     1      22.842  19.628  17.769  1.00  0.00     0.036 C 
HETATM   10  C   LIG     1      24.266  19.334  17.258  1.00  0.00     0.038 C 
HETATM   11  C   LIG     1      21.794  19.143  16.747  1.00  0.00     0.038 C 
HETATM   12  C   LIG     1      22.628  18.854  19.087  1.00  0.00     0.038 C 
ENDBRANCH   7   9
ENDBRANCH   1   7
BRANCH   5  13
HETATM   13  N   LIG     1      23.962  22.846  22.331  1.00  0.00    -0.222 N 
HETATM   14  H   LIG     1      23.419  23.659  22.701  1.00  0.00     0.177 HD
BRANCH  13  15
HETATM   15  C   LIG     1      24.398  21.815  23.271  1.00  0.00     0.134 C 
HETATM   16  C   LIG     1      23.256  20.850  23.577  1.00  0.00     0.027 C 
ENDBRANCH  13  15
ENDBRANCH   5  13
BRANCH   3  17
HETATM   17  S   LIG     1      26.784  24.191  18.234  1.00  0.00    -0.093 SA
HETATM   18  C   LIG     1      26.792  25.508  19.488  1.00  0.00     0.099 C 
ENDBRANCH   3  17
TORSDOF 5
ENDMDL
MODEL 17
REMARK VINA RESULT:      -4.2     15.011     16.488
REMARK  5 active torsions:
REMARK  status: ('A' for Active; 'I' for Inactive)
REMARK    1  A    between atoms: C_2  and  N_5 
REMARK    2  A    between atoms: N_5  and  C_6 
REMARK    3  A    between atoms: C_8  and  S_9 
REMARK    4  A    between atoms: C_12  and  N_13 
REMARK    5  A    between atoms: N_13  and  C_14 
ROOT
HETATM    1  C   LIG     1      24.275  22.775  20.884  1.00  0.00     0.741 A 
HETATM    2  N   LIG     1      25.309  23.422  20.287  1.00  0.00    -0.035 NA
HETATM    3  C   LIG     1      25.484  23.344  18.944  1.00  0.00     0.225 A 
HETATM    4  N   LIG     1      24.626  22.613  18.191  1.00  0.00    -0.035 NA
HETATM    5  C   LIG     1      23.590  21.958  18.779  1.00  0.00     0.740 A 
HETATM    6  N   LIG     1      23.418  22.044  20.124  1.00  0.00     0.130 NA
ENDROOT
BRANCH   1   7
HETATM    7  N   LIG     1      24.069  22.853  22.305  1.00  0.00    -0.214 N 
HETATM    8  H   LIG     1      23.622  23.732  22.655  1.00  0.00     0.178 HD
BRANCH   7   9
HETATM    9  C   LIG     1      24.442  21.815  23.287  1.00  0.00     0.036 C 
HETATM   10  C   LIG     1      25.652  21.006  22.780  1.00  0.00     0.038 C 
HETATM   11  C   LIG     1      23.246  20.880  23.559  1.00  0.00     0.038 C 
HETATM   12  C   LIG     1      24.835  22.500  24.613  1.00  0.00     0.038 C 
ENDBRANCH   7   9
ENDBRANCH   1   7
BRANCH   5  13
HETATM   13  N   LIG     1      22.673  21.186  17.994  1.00  0.00    -0.222 N 
HETATM   14  H   LIG     1      21.775  21.629  17.694  1.00  0.00     0.177 HD
BRANCH  13  15
HETATM   15  C   LIG     1      22.969  19.831  17.532  1.00  0.00     0.134 C 
HETATM   16  C   LIG     1      21.978  18.833  18.122  1.00  0.00     0.027 C 
ENDBRANCH  13  15
ENDBRANCH   5  13
BRANCH   3  17
HETATM   17  S   LIG     1      26.845  24.205  18.169  1.00  0.00    -0.093 SA
HETATM   18  C   LIG     1      26.744  25.621  19.307  1.00  0.00     0.099 C 
ENDBRANCH   3  17
TORSDOF 5
ENDMDL
MODEL 18
REMARK VINA RESULT:      -4.1     14.535     16.177
REMARK  5 active torsions:
REMARK  status: ('A' for Active; 'I' for Inactive)
REMARK    1  A    between atoms: C_2  and  N_5 
REMARK    2  A    between atoms: N_5  and  C_6 
REMARK    3  A    between atoms: C_8  and  S_9 
REMARK    4  A    between atoms: C_12  and  N_13 
REMARK    5  A    between atoms: N_13  and  C_14 
ROOT
HETATM    1  C   LIG     1      26.090  23.256  20.520  1.00  0.00     0.741 A 
HETATM    2  N   LIG     1      26.846  23.175  21.645  1.00  0.00    -0.035 NA
HETATM    3  C   LIG     1      27.679  24.189  21.987  1.00  0.00     0.225 A 
HETATM    4  N   LIG     1      27.762  25.291  21.201  1.00  0.00    -0.035 NA
HETATM    5  C   LIG     1      27.014  25.380  20.070  1.00  0.00     0.740 A 
HETATM    6  N   LIG     1      26.179  24.362  19.736  1.00  0.00     0.130 NA
ENDROOT
BRANCH   1   7
HETATM    7  N   LIG     1      25.196  22.193  20.144  1.00  0.00    -0.214 N 
HETATM    8  H   LIG     1      25.563  21.516  19.437  1.00  0.00     0.178 HD
BRANCH   7   9
HETATM    9  C   LIG     1      23.827  21.997  20.662  1.00  0.00     0.036 C 
HETATM   10  C   LIG     1      23.757  20.723  21.527  1.00  0.00     0.038 C 
HETATM   11  C   LIG     1      22.821  21.912  19.496  1.00  0.00     0.038 C 
HETATM   12  C   LIG     1      23.448  23.206  21.543  1.00  0.00     0.038 C 
ENDBRANCH   7   9
ENDBRANCH   1   7
BRANCH   5  13
HETATM   13  N   LIG     1      27.088  26.541  19.233  1.00  0.00    -0.222 N 
HETATM   14  H   LIG     1      26.228  27.121  19.103  1.00  0.00     0.177 HD
BRANCH  13  15
HETATM   15  C   LIG     1      28.332  26.992  18.612  1.00  0.00     0.134 C 
HETATM   16  C   LIG     1      28.844  25.954  17.617  1.00  0.00     0.027 C 
ENDBRANCH  13  15
ENDBRANCH   5  13
BRANCH   3  17
HETATM   17  S   LIG     1      28.664  24.074  23.474  1.00  0.00    -0.093 SA
HETATM   18  C   LIG     1      27.231  23.688  24.527  1.00  0.00     0.099 C 
ENDBRANCH   3  17
TORSDOF 5
ENDMDL
MODEL 19
REMARK VINA RESULT:      -4.1     15.463     16.682
REMARK  5 active torsions:
REMARK  status: ('A' for Active; 'I' for Inactive)
REMARK    1  A    between atoms: C_2  and  N_5 
REMARK    2  A    between atoms: N_5  and  C_6 
REMARK    3  A    between atoms: C_8  and  S_9 
REMARK    4  A    between atoms: C_12  and  N_13 
REMARK    5  A    between atoms: N_13  and  C_14 
ROOT
HETATM    1  C   LIG     1      24.190  21.501  23.400  1.00  0.00     0.741 A 
HETATM    2  N   LIG     1      23.454  20.624  24.130  1.00  0.00    -0.035 NA
HETATM    3  C   LIG     1      23.310  20.796  25.467  1.00  0.00     0.225 A 
HETATM    4  N   LIG     1      23.906  21.846  26.083  1.00  0.00    -0.035 NA
HETATM    5  C   LIG     1      24.648  22.728  25.363  1.00  0.00     0.740 A 
HETATM    6  N   LIG     1      24.785  22.552  24.023  1.00  0.00     0.130 NA
ENDROOT
BRANCH   1   7
HETATM    7  N   LIG     1      24.348  21.340  21.979  1.00  0.00    -0.214 N 
HETATM    8  H   LIG     1      24.930  20.526  21.674  1.00  0.00     0.178 HD
BRANCH   7   9
HETATM    9  C   LIG     1      23.774  22.222  20.943  1.00  0.00     0.036 C 
HETATM   10  C   LIG     1      24.755  23.362  20.605  1.00  0.00     0.038 C 
HETATM   11  C   LIG     1      22.424  22.797  21.417  1.00  0.00     0.038 C 
HETATM   12  C   LIG     1      23.528  21.395  19.664  1.00  0.00     0.038 C 
ENDBRANCH   7   9
ENDBRANCH   1   7
BRANCH   5  13
HETATM   13  N   LIG     1      25.279  23.845  26.000  1.00  0.00    -0.222 N 
HETATM   14  H   LIG     1      24.677  24.614  26.374  1.00  0.00     0.177 HD
BRANCH  13  15
HETATM   15  C   LIG     1      26.722  23.923  26.217  1.00  0.00     0.134 C 
HETATM   16  C   LIG     1      27.368  24.869  25.209  1.00  0.00     0.027 C 
ENDBRANCH  13  15
ENDBRANCH   5  13
BRANCH   3  17
HETATM   17  S   LIG     1      22.333  19.637  26.416  1.00  0.00    -0.093 SA
HETATM   18  C   LIG     1      21.725  20.915  27.560  1.00  0.00     0.099 C 
ENDBRANCH   3  17
TORSDOF 5
ENDMDL
MODEL 20
REMARK VINA RESULT:      -3.9     14.999     16.112
REMARK  5 active torsions:
REMARK  status: ('A' for Active; 'I' for Inactive)
REMARK    1  A    between atoms: C_2  and  N_5 
REMARK    2  A    between atoms: N_5  and  C_6 
REMARK    3  A    between atoms: C_8  and  S_9 
REMARK    4  A    between atoms: C_12  and  N_13 
REMARK    5  A    between atoms: N_13  and  C_14 
ROOT
HETATM    1  C   LIG     1      26.188  23.079  19.975  1.00  0.00     0.741 A 
HETATM    2  N   LIG     1      25.313  22.487  19.123  1.00  0.00    -0.035 NA
HETATM    3  C   LIG     1      24.161  21.943  19.591  1.00  0.00     0.225 A 
HETATM    4  N   LIG     1      23.882  21.986  20.917  1.00  0.00    -0.035 NA
HETATM    5  C   LIG     1      24.754  22.573  21.779  1.00  0.00     0.740 A 
HETATM    6  N   LIG     1      25.903  23.119  21.303  1.00  0.00     0.130 NA
ENDROOT
BRANCH   1   7
HETATM    7  N   LIG     1      27.411  23.668  19.497  1.00  0.00    -0.214 N 
HETATM    8  H   LIG     1      28.197  23.002  19.314  1.00  0.00     0.178 HD
BRANCH   7   9
HETATM    9  C   LIG     1      27.638  25.107  19.261  1.00  0.00     0.036 C 
HETATM   10  C   LIG     1      28.501  25.315  18.000  1.00  0.00     0.038 C 
HETATM   11  C   LIG     1      28.315  25.751  20.488  1.00  0.00     0.038 C 
HETATM   12  C   LIG     1      26.277  25.799  19.039  1.00  0.00     0.038 C 
ENDBRANCH   7   9
ENDBRANCH   1   7
BRANCH   5  13
HETATM   13  N   LIG     1      24.469  22.629  23.182  1.00  0.00    -0.222 N 
HETATM   14  H   LIG     1      23.473  22.563  23.494  1.00  0.00     0.177 HD
BRANCH  13  15
HETATM   15  C   LIG     1      25.514  22.702  24.201  1.00  0.00     0.134 C 
HETATM   16  C   LIG     1      24.966  23.305  25.491  1.00  0.00     0.027 C 
ENDBRANCH  13  15
ENDBRANCH   5  13
BRANCH   3  17
HETATM   17  S   LIG     1      23.013  21.172  18.458  1.00  0.00    -0.093 SA
HETATM   18  C   LIG     1      23.067  19.570  19.318  1.00  0.00     0.099 C 
ENDBRANCH   3  17
TORSDOF 5
ENDMDL
