REMARK  2 active torsions:
REMARK  status: ('A' for Active; 'I' for Inactive)
REMARK    1  A    between atoms: C_2  and  C_3 
REMARK    2  A    between atoms: C_9  and  O_10 
ROOT
HETATM    1  C   LIG     1      -0.593   0.118   0.351  1.00  0.00     0.018 C 
HETATM    2  C   LIG     1      -0.084  -1.339   0.167  1.00  0.00     0.008 C 
HETATM    3  C   LIG     1       1.225  -1.621   0.910  1.00  0.00     0.005 C 
HETATM    4  C   LIG     1       2.343  -0.646   0.519  1.00  0.00    -0.016 C 
HETATM    5  C   LIG     1       2.865  -0.888  -0.907  1.00  0.00     0.010 C 
HETATM    6  C   LIG     1       1.877   0.800   0.736  1.00  0.00     0.036 C 
HETATM    7  C   LIG     1       0.553   1.132   0.015  1.00  0.00     0.122 C 
ENDROOT
BRANCH   1   8
HETATM    8  C   LIG     1      -1.880   0.354  -0.523  1.00  0.00    -0.016 C 
HETATM    9  C   LIG     1      -2.984  -0.680  -0.221  1.00  0.00     0.010 C 
HETATM   10  C   LIG     1      -2.477   1.764  -0.349  1.00  0.00     0.010 C 
ENDBRANCH   1   8
BRANCH   7  11
HETATM   11  O   LIG     1       0.195   2.450   0.346  1.00  0.00    -0.395 OA
HETATM   12  H   LIG     1      -0.021   2.471   1.316  1.00  0.00     0.210 HD
ENDBRANCH   7  11
TORSDOF 2
