MODEL 1
REMARK VINA RESULT:      -6.7      0.000      0.000
REMARK  2 active torsions:
REMARK  status: ('A' for Active; 'I' for Inactive)
REMARK    1  A    between atoms: C_2  and  C_3 
REMARK    2  A    between atoms: C_9  and  O_10 
ROOT
HETATM    1  C   LIG     1      17.500  36.382  24.193  1.00  0.00     0.018 C 
HETATM    2  C   LIG     1      17.198  35.058  23.436  1.00  0.00     0.008 C 
HETATM    3  C   LIG     1      17.194  35.220  21.913  1.00  0.00     0.005 C 
HETATM    4  C   LIG     1      16.215  36.302  21.441  1.00  0.00    -0.016 C 
HETATM    5  C   LIG     1      14.745  35.880  21.603  1.00  0.00     0.010 C 
HETATM    6  C   LIG     1      16.524  37.631  22.144  1.00  0.00     0.036 C 
HETATM    7  C   LIG     1      16.551  37.519  23.683  1.00  0.00     0.122 C 
ENDROOT
BRANCH   1   8
HETATM    8  C   LIG     1      17.384  36.153  25.746  1.00  0.00    -0.016 C 
HETATM    9  C   LIG     1      17.238  34.660  26.103  1.00  0.00     0.010 C 
HETATM   10  C   LIG     1      18.582  36.723  26.530  1.00  0.00     0.010 C 
ENDBRANCH   1   8
BRANCH   7  11
HETATM   11  O   LIG     1      16.914  38.772  24.205  1.00  0.00    -0.395 OA
HETATM   12  H   LIG     1      16.132  39.131  24.703  1.00  0.00     0.210 HD
ENDBRANCH   7  11
TORSDOF 2
ENDMDL
MODEL 2
REMARK VINA RESULT:      -6.5      2.847      4.245
REMARK  2 active torsions:
REMARK  status: ('A' for Active; 'I' for Inactive)
REMARK    1  A    between atoms: C_2  and  C_3 
REMARK    2  A    between atoms: C_9  and  O_10 
ROOT
HETATM    1  C   LIG     1      18.001  37.053  21.271  1.00  0.00     0.018 C 
HETATM    2  C   LIG     1      18.581  36.629  19.892  1.00  0.00     0.008 C 
HETATM    3  C   LIG     1      19.811  37.441  19.477  1.00  0.00     0.005 C 
HETATM    4  C   LIG     1      19.539  38.951  19.464  1.00  0.00    -0.016 C 
HETATM    5  C   LIG     1      18.618  39.375  18.308  1.00  0.00     0.010 C 
HETATM    6  C   LIG     1      19.008  39.400  20.832  1.00  0.00     0.036 C 
HETATM    7  C   LIG     1      17.773  38.602  21.302  1.00  0.00     0.122 C 
ENDROOT
BRANCH   1   8
HETATM    8  C   LIG     1      16.686  36.244  21.574  1.00  0.00    -0.016 C 
HETATM    9  C   LIG     1      16.204  35.439  20.350  1.00  0.00     0.010 C 
HETATM   10  C   LIG     1      16.834  35.275  22.763  1.00  0.00     0.010 C 
ENDBRANCH   1   8
BRANCH   7  11
HETATM   11  O   LIG     1      17.427  39.051  22.588  1.00  0.00    -0.395 OA
HETATM   12  H   LIG     1      17.529  38.286  23.214  1.00  0.00     0.210 HD
ENDBRANCH   7  11
TORSDOF 2
ENDMDL
MODEL 3
REMARK VINA RESULT:      -6.4      1.686      2.877
REMARK  2 active torsions:
REMARK  status: ('A' for Active; 'I' for Inactive)
REMARK    1  A    between atoms: C_2  and  C_3 
REMARK    2  A    between atoms: C_9  and  O_10 
ROOT
HETATM    1  C   LIG     1      17.128  36.673  24.456  1.00  0.00     0.018 C 
HETATM    2  C   LIG     1      17.575  38.158  24.553  1.00  0.00     0.008 C 
HETATM    3  C   LIG     1      16.897  39.063  23.521  1.00  0.00     0.005 C 
HETATM    4  C   LIG     1      17.104  38.570  22.083  1.00  0.00    -0.016 C 
HETATM    5  C   LIG     1      18.551  38.759  21.597  1.00  0.00     0.010 C 
HETATM    6  C   LIG     1      16.626  37.118  21.953  1.00  0.00     0.036 C 
HETATM    7  C   LIG     1      17.273  36.165  22.981  1.00  0.00     0.122 C 
ENDROOT
BRANCH   1   8
HETATM    8  C   LIG     1      17.943  35.796  25.477  1.00  0.00    -0.016 C 
HETATM    9  C   LIG     1      18.581  36.648  26.594  1.00  0.00     0.010 C 
HETATM   10  C   LIG     1      17.094  34.692  26.137  1.00  0.00     0.010 C 
ENDBRANCH   1   8
BRANCH   7  11
HETATM   11  O   LIG     1      16.707  34.890  22.812  1.00  0.00    -0.395 OA
HETATM   12  H   LIG     1      15.993  34.965  22.124  1.00  0.00     0.210 HD
ENDBRANCH   7  11
TORSDOF 2
ENDMDL
MODEL 4
REMARK VINA RESULT:      -6.1      3.170      4.512
REMARK  2 active torsions:
REMARK  status: ('A' for Active; 'I' for Inactive)
REMARK    1  A    between atoms: C_2  and  C_3 
REMARK    2  A    between atoms: C_9  and  O_10 
ROOT
HETATM    1  C   LIG     1      17.471  37.895  21.381  1.00  0.00     0.018 C 
HETATM    2  C   LIG     1      18.427  39.120  21.390  1.00  0.00     0.008 C 
HETATM    3  C   LIG     1      18.873  39.550  19.990  1.00  0.00     0.005 C 
HETATM    4  C   LIG     1      19.530  38.406  19.206  1.00  0.00    -0.016 C 
HETATM    5  C   LIG     1      20.919  38.038  19.754  1.00  0.00     0.010 C 
HETATM    6  C   LIG     1      18.583  37.200  19.146  1.00  0.00     0.036 C 
HETATM    7  C   LIG     1      18.096  36.734  20.535  1.00  0.00     0.122 C 
ENDROOT
BRANCH   1   8
HETATM    8  C   LIG     1      17.145  37.455  22.857  1.00  0.00    -0.016 C 
HETATM    9  C   LIG     1      17.949  38.264  23.895  1.00  0.00     0.010 C 
HETATM   10  C   LIG     1      15.648  37.574  23.204  1.00  0.00     0.010 C 
ENDBRANCH   1   8
BRANCH   7  11
HETATM   11  O   LIG     1      17.186  35.679  20.347  1.00  0.00    -0.395 OA
HETATM   12  H   LIG     1      17.533  34.888  20.838  1.00  0.00     0.210 HD
ENDBRANCH   7  11
TORSDOF 2
ENDMDL
MODEL 5
REMARK VINA RESULT:      -6.1      2.520      4.526
REMARK  2 active torsions:
REMARK  status: ('A' for Active; 'I' for Inactive)
REMARK    1  A    between atoms: C_2  and  C_3 
REMARK    2  A    between atoms: C_9  and  O_10 
ROOT
HETATM    1  C   LIG     1      17.996  38.136  20.880  1.00  0.00     0.018 C 
HETATM    2  C   LIG     1      17.394  36.740  21.202  1.00  0.00     0.008 C 
HETATM    3  C   LIG     1      16.195  36.803  22.152  1.00  0.00     0.005 C 
HETATM    4  C   LIG     1      16.525  37.522  23.467  1.00  0.00    -0.016 C 
HETATM    5  C   LIG     1      17.456  36.697  24.372  1.00  0.00     0.010 C 
HETATM    6  C   LIG     1      17.081  38.922  23.173  1.00  0.00     0.036 C 
HETATM    7  C   LIG     1      18.286  38.913  22.209  1.00  0.00     0.122 C 
ENDROOT
BRANCH   1   8
HETATM    8  C   LIG     1      19.280  37.976  19.985  1.00  0.00    -0.016 C 
HETATM    9  C   LIG     1      19.478  36.522  19.509  1.00  0.00     0.010 C 
HETATM   10  C   LIG     1      19.271  38.893  18.747  1.00  0.00     0.010 C 
ENDBRANCH   1   8
BRANCH   7  11
HETATM   11  O   LIG     1      18.656  40.247  21.962  1.00  0.00    -0.395 OA
HETATM   12  H   LIG     1      17.823  40.783  21.884  1.00  0.00     0.210 HD
ENDBRANCH   7  11
TORSDOF 2
ENDMDL
MODEL 6
REMARK VINA RESULT:      -5.9      2.115      3.784
REMARK  2 active torsions:
REMARK  status: ('A' for Active; 'I' for Inactive)
REMARK    1  A    between atoms: C_2  and  C_3 
REMARK    2  A    between atoms: C_9  and  O_10 
ROOT
HETATM    1  C   LIG     1      17.517  38.233  21.148  1.00  0.00     0.018 C 
HETATM    2  C   LIG     1      18.048  36.831  20.738  1.00  0.00     0.008 C 
HETATM    3  C   LIG     1      16.958  35.756  20.710  1.00  0.00     0.005 C 
HETATM    4  C   LIG     1      16.214  35.639  22.046  1.00  0.00    -0.016 C 
HETATM    5  C   LIG     1      17.082  35.017  23.152  1.00  0.00     0.010 C 
HETATM    6  C   LIG     1      15.642  37.005  22.448  1.00  0.00     0.036 C 
HETATM    7  C   LIG     1      16.701  38.128  22.481  1.00  0.00     0.122 C 
ENDROOT
BRANCH   1   8
HETATM    8  C   LIG     1      18.711  39.253  21.253  1.00  0.00    -0.016 C 
HETATM    9  C   LIG     1      19.408  39.190  22.627  1.00  0.00     0.010 C 
HETATM   10  C   LIG     1      19.777  39.047  20.160  1.00  0.00     0.010 C 
ENDBRANCH   1   8
BRANCH   7  11
HETATM   11  O   LIG     1      16.048  39.334  22.788  1.00  0.00    -0.395 OA
HETATM   12  H   LIG     1      15.069  39.163  22.766  1.00  0.00     0.210 HD
ENDBRANCH   7  11
TORSDOF 2
ENDMDL
MODEL 7
REMARK VINA RESULT:      -5.8      1.370      3.965
REMARK  2 active torsions:
REMARK  status: ('A' for Active; 'I' for Inactive)
REMARK    1  A    between atoms: C_2  and  C_3 
REMARK    2  A    between atoms: C_9  and  O_10 
ROOT
HETATM    1  C   LIG     1      16.983  37.055  24.029  1.00  0.00     0.018 C 
HETATM    2  C   LIG     1      17.175  35.522  23.855  1.00  0.00     0.008 C 
HETATM    3  C   LIG     1      16.848  34.724  25.120  1.00  0.00     0.005 C 
HETATM    4  C   LIG     1      17.656  35.195  26.336  1.00  0.00    -0.016 C 
HETATM    5  C   LIG     1      19.143  34.818  26.238  1.00  0.00     0.010 C 
HETATM    6  C   LIG     1      17.446  36.700  26.554  1.00  0.00     0.036 C 
HETATM    7  C   LIG     1      17.752  37.549  25.302  1.00  0.00     0.122 C 
ENDROOT
BRANCH   1   8
HETATM    8  C   LIG     1      17.436  37.807  22.723  1.00  0.00    -0.016 C 
HETATM    9  C   LIG     1      17.384  36.894  21.481  1.00  0.00     0.010 C 
HETATM   10  C   LIG     1      16.600  39.068  22.432  1.00  0.00     0.010 C 
ENDBRANCH   1   8
BRANCH   7  11
HETATM   11  O   LIG     1      17.454  38.890  25.601  1.00  0.00    -0.395 OA
HETATM   12  H   LIG     1      18.141  39.217  26.240  1.00  0.00     0.210 HD
ENDBRANCH   7  11
TORSDOF 2
ENDMDL
MODEL 8
REMARK VINA RESULT:      -5.8      1.177      3.911
REMARK  2 active torsions:
REMARK  status: ('A' for Active; 'I' for Inactive)
REMARK    1  A    between atoms: C_2  and  C_3 
REMARK    2  A    between atoms: C_9  and  O_10 
ROOT
HETATM    1  C   LIG     1      16.692  35.918  22.866  1.00  0.00     0.018 C 
HETATM    2  C   LIG     1      17.396  34.965  23.872  1.00  0.00     0.008 C 
HETATM    3  C   LIG     1      17.101  35.304  25.336  1.00  0.00     0.005 C 
HETATM    4  C   LIG     1      17.459  36.754  25.685  1.00  0.00    -0.016 C 
HETATM    5  C   LIG     1      18.978  36.994  25.725  1.00  0.00     0.010 C 
HETATM    6  C   LIG     1      16.738  37.716  24.731  1.00  0.00     0.036 C 
HETATM    7  C   LIG     1      16.994  37.409  23.241  1.00  0.00     0.122 C 
ENDROOT
BRANCH   1   8
HETATM    8  C   LIG     1      17.127  35.567  21.395  1.00  0.00    -0.016 C 
HETATM    9  C   LIG     1      15.914  35.321  20.475  1.00  0.00     0.010 C 
HETATM   10  C   LIG     1      18.010  36.654  20.752  1.00  0.00     0.010 C 
ENDBRANCH   1   8
BRANCH   7  11
HETATM   11  O   LIG     1      16.229  38.303  22.473  1.00  0.00    -0.395 OA
HETATM   12  H   LIG     1      16.783  38.589  21.699  1.00  0.00     0.210 HD
ENDBRANCH   7  11
TORSDOF 2
ENDMDL
MODEL 9
REMARK VINA RESULT:      -5.5      3.149      5.080
REMARK  2 active torsions:
REMARK  status: ('A' for Active; 'I' for Inactive)
REMARK    1  A    between atoms: C_2  and  C_3 
REMARK    2  A    between atoms: C_9  and  O_10 
ROOT
HETATM    1  C   LIG     1      18.892  38.279  21.129  1.00  0.00     0.018 C 
HETATM    2  C   LIG     1      18.301  39.120  22.295  1.00  0.00     0.008 C 
HETATM    3  C   LIG     1      17.750  38.265  23.439  1.00  0.00     0.005 C 
HETATM    4  C   LIG     1      16.697  37.256  22.964  1.00  0.00    -0.016 C 
HETATM    5  C   LIG     1      15.374  37.929  22.562  1.00  0.00     0.010 C 
HETATM    6  C   LIG     1      17.276  36.383  21.842  1.00  0.00     0.036 C 
HETATM    7  C   LIG     1      17.854  37.200  20.667  1.00  0.00     0.122 C 
ENDROOT
BRANCH   1   8
HETATM    8  C   LIG     1      19.340  39.225  19.954  1.00  0.00    -0.016 C 
HETATM    9  C   LIG     1      20.677  38.780  19.328  1.00  0.00     0.010 C 
HETATM   10  C   LIG     1      18.290  39.330  18.831  1.00  0.00     0.010 C 
ENDBRANCH   1   8
BRANCH   7  11
HETATM   11  O   LIG     1      18.416  36.300  19.745  1.00  0.00    -0.395 OA
HETATM   12  H   LIG     1      19.280  36.682  19.437  1.00  0.00     0.210 HD
ENDBRANCH   7  11
TORSDOF 2
ENDMDL
MODEL 10
REMARK VINA RESULT:      -5.3      2.749      4.349
REMARK  2 active torsions:
REMARK  status: ('A' for Active; 'I' for Inactive)
REMARK    1  A    between atoms: C_2  and  C_3 
REMARK    2  A    between atoms: C_9  and  O_10 
ROOT
HETATM    1  C   LIG     1      18.155  37.381  21.142  1.00  0.00     0.018 C 
HETATM    2  C   LIG     1      17.292  37.396  22.435  1.00  0.00     0.008 C 
HETATM    3  C   LIG     1      16.813  36.005  22.859  1.00  0.00     0.005 C 
HETATM    4  C   LIG     1      16.037  35.288  21.747  1.00  0.00    -0.016 C 
HETATM    5  C   LIG     1      14.653  35.910  21.498  1.00  0.00     0.010 C 
HETATM    6  C   LIG     1      16.889  35.221  20.473  1.00  0.00     0.036 C 
HETATM    7  C   LIG     1      17.406  36.599  20.009  1.00  0.00     0.122 C 
ENDROOT
BRANCH   1   8
HETATM    8  C   LIG     1      18.518  38.852  20.718  1.00  0.00    -0.016 C 
HETATM    9  C   LIG     1      18.494  39.823  21.916  1.00  0.00     0.010 C 
HETATM   10  C   LIG     1      19.896  38.960  20.036  1.00  0.00     0.010 C 
ENDBRANCH   1   8
BRANCH   7  11
HETATM   11  O   LIG     1      18.227  36.401  18.885  1.00  0.00    -0.395 OA
HETATM   12  H   LIG     1      19.018  35.875  19.176  1.00  0.00     0.210 HD
ENDBRANCH   7  11
TORSDOF 2
ENDMDL
MODEL 11
REMARK VINA RESULT:      -5.3      2.599      4.136
REMARK  2 active torsions:
REMARK  status: ('A' for Active; 'I' for Inactive)
REMARK    1  A    between atoms: C_2  and  C_3 
REMARK    2  A    between atoms: C_9  and  O_10 
ROOT
HETATM    1  C   LIG     1      16.473  36.874  21.546  1.00  0.00     0.018 C 
HETATM    2  C   LIG     1      16.282  37.825  22.760  1.00  0.00     0.008 C 
HETATM    3  C   LIG     1      16.727  39.263  22.478  1.00  0.00     0.005 C 
HETATM    4  C   LIG     1      18.183  39.344  22.002  1.00  0.00    -0.016 C 
HETATM    5  C   LIG     1      19.189  39.040  23.125  1.00  0.00     0.010 C 
HETATM    6  C   LIG     1      18.383  38.446  20.774  1.00  0.00     0.036 C 
HETATM    7  C   LIG     1      17.939  36.985  21.004  1.00  0.00     0.122 C 
ENDROOT
BRANCH   1   8
HETATM    8  C   LIG     1      16.092  35.402  21.950  1.00  0.00    -0.016 C 
HETATM    9  C   LIG     1      15.974  34.476  20.721  1.00  0.00     0.010 C 
HETATM   10  C   LIG     1      17.090  34.769  22.938  1.00  0.00     0.010 C 
ENDBRANCH   1   8
BRANCH   7  11
HETATM   11  O   LIG     1      18.102  36.285  19.797  1.00  0.00    -0.395 OA
HETATM   12  H   LIG     1      19.044  35.970  19.754  1.00  0.00     0.210 HD
ENDBRANCH   7  11
TORSDOF 2
ENDMDL
MODEL 12
REMARK VINA RESULT:      -5.1      8.314     10.156
REMARK  2 active torsions:
REMARK  status: ('A' for Active; 'I' for Inactive)
REMARK    1  A    between atoms: C_2  and  C_3 
REMARK    2  A    between atoms: C_9  and  O_10 
ROOT
HETATM    1  C   LIG     1      14.720  32.027  15.788  1.00  0.00     0.018 C 
HETATM    2  C   LIG     1      15.887  31.756  14.797  1.00  0.00     0.008 C 
HETATM    3  C   LIG     1      15.434  31.077  13.501  1.00  0.00     0.005 C 
HETATM    4  C   LIG     1      14.680  29.766  13.758  1.00  0.00    -0.016 C 
HETATM    5  C   LIG     1      15.603  28.644  14.262  1.00  0.00     0.010 C 
HETATM    6  C   LIG     1      13.495  30.019  14.700  1.00  0.00     0.036 C 
HETATM    7  C   LIG     1      13.898  30.714  16.018  1.00  0.00     0.122 C 
ENDROOT
BRANCH   1   8
HETATM    8  C   LIG     1      15.281  32.629  17.129  1.00  0.00    -0.016 C 
HETATM    9  C   LIG     1      15.061  34.154  17.217  1.00  0.00     0.010 C 
HETATM   10  C   LIG     1      14.668  31.979  18.384  1.00  0.00     0.010 C 
ENDBRANCH   1   8
BRANCH   7  11
HETATM   11  O   LIG     1      12.728  30.956  16.758  1.00  0.00    -0.395 OA
HETATM   12  H   LIG     1      12.426  31.881  16.554  1.00  0.00     0.210 HD
ENDBRANCH   7  11
TORSDOF 2
ENDMDL
MODEL 13
REMARK VINA RESULT:      -5.0      1.364      2.032
REMARK  2 active torsions:
REMARK  status: ('A' for Active; 'I' for Inactive)
REMARK    1  A    between atoms: C_2  and  C_3 
REMARK    2  A    between atoms: C_9  and  O_10 
ROOT
HETATM    1  C   LIG     1      17.005  36.967  22.857  1.00  0.00     0.018 C 
HETATM    2  C   LIG     1      17.577  35.813  21.987  1.00  0.00     0.008 C 
HETATM    3  C   LIG     1      16.869  35.664  20.638  1.00  0.00     0.005 C 
HETATM    4  C   LIG     1      15.354  35.475  20.789  1.00  0.00    -0.016 C 
HETATM    5  C   LIG     1      14.985  34.097  21.362  1.00  0.00     0.010 C 
HETATM    6  C   LIG     1      14.760  36.629  21.607  1.00  0.00     0.036 C 
HETATM    7  C   LIG     1      15.449  36.828  22.975  1.00  0.00     0.122 C 
ENDROOT
BRANCH   1   8
HETATM    8  C   LIG     1      17.715  36.987  24.261  1.00  0.00    -0.016 C 
HETATM    9  C   LIG     1      17.360  38.249  25.073  1.00  0.00     0.010 C 
HETATM   10  C   LIG     1      17.386  35.750  25.120  1.00  0.00     0.010 C 
ENDBRANCH   1   8
BRANCH   7  11
HETATM   11  O   LIG     1      14.872  37.950  23.594  1.00  0.00    -0.395 OA
HETATM   12  H   LIG     1      14.781  37.748  24.563  1.00  0.00     0.210 HD
ENDBRANCH   7  11
TORSDOF 2
ENDMDL
MODEL 14
REMARK VINA RESULT:      -4.9      1.722      2.502
REMARK  2 active torsions:
REMARK  status: ('A' for Active; 'I' for Inactive)
REMARK    1  A    between atoms: C_2  and  C_3 
REMARK    2  A    between atoms: C_9  and  O_10 
ROOT
HETATM    1  C   LIG     1      16.629  36.933  24.228  1.00  0.00     0.018 C 
HETATM    2  C   LIG     1      16.219  37.819  23.018  1.00  0.00     0.008 C 
HETATM    3  C   LIG     1      15.349  37.083  21.996  1.00  0.00     0.005 C 
HETATM    4  C   LIG     1      16.012  35.801  21.476  1.00  0.00    -0.016 C 
HETATM    5  C   LIG     1      17.208  36.087  20.553  1.00  0.00     0.010 C 
HETATM    6  C   LIG     1      16.385  34.889  22.654  1.00  0.00     0.036 C 
HETATM    7  C   LIG     1      17.254  35.589  23.720  1.00  0.00     0.122 C 
ENDROOT
BRANCH   1   8
HETATM    8  C   LIG     1      17.601  37.729  25.174  1.00  0.00    -0.016 C 
HETATM    9  C   LIG     1      18.062  36.881  26.378  1.00  0.00     0.010 C 
HETATM   10  C   LIG     1      18.853  38.257  24.447  1.00  0.00     0.010 C 
ENDBRANCH   1   8
BRANCH   7  11
HETATM   11  O   LIG     1      17.467  34.683  24.773  1.00  0.00    -0.395 OA
HETATM   12  H   LIG     1      17.461  35.199  25.622  1.00  0.00     0.210 HD
ENDBRANCH   7  11
TORSDOF 2
ENDMDL
MODEL 15
REMARK VINA RESULT:      -4.9      8.358     10.609
REMARK  2 active torsions:
REMARK  status: ('A' for Active; 'I' for Inactive)
REMARK    1  A    between atoms: C_2  and  C_3 
REMARK    2  A    between atoms: C_9  and  O_10 
ROOT
HETATM    1  C   LIG     1      14.341  30.870  15.031  1.00  0.00     0.018 C 
HETATM    2  C   LIG     1      13.297  30.833  16.182  1.00  0.00     0.008 C 
HETATM    3  C   LIG     1      13.078  32.197  16.844  1.00  0.00     0.005 C 
HETATM    4  C   LIG     1      14.383  32.810  17.369  1.00  0.00    -0.016 C 
HETATM    5  C   LIG     1      14.927  32.072  18.604  1.00  0.00     0.010 C 
HETATM    6  C   LIG     1      15.414  32.897  16.236  1.00  0.00     0.036 C 
HETATM    7  C   LIG     1      15.663  31.548  15.528  1.00  0.00     0.122 C 
ENDROOT
BRANCH   1   8
HETATM    8  C   LIG     1      14.582  29.417  14.476  1.00  0.00    -0.016 C 
HETATM    9  C   LIG     1      13.260  28.697  14.141  1.00  0.00     0.010 C 
HETATM   10  C   LIG     1      15.478  29.392  13.222  1.00  0.00     0.010 C 
ENDBRANCH   1   8
BRANCH   7  11
HETATM   11  O   LIG     1      16.563  31.769  14.472  1.00  0.00    -0.395 OA
HETATM   12  H   LIG     1      16.425  31.050  13.800  1.00  0.00     0.210 HD
ENDBRANCH   7  11
TORSDOF 2
ENDMDL
MODEL 16
REMARK VINA RESULT:      -4.9      7.801     10.039
REMARK  2 active torsions:
REMARK  status: ('A' for Active; 'I' for Inactive)
REMARK    1  A    between atoms: C_2  and  C_3 
REMARK    2  A    between atoms: C_9  and  O_10 
ROOT
HETATM    1  C   LIG     1      14.854  31.593  15.183  1.00  0.00     0.018 C 
HETATM    2  C   LIG     1      14.023  30.904  16.301  1.00  0.00     0.008 C 
HETATM    3  C   LIG     1      13.400  31.893  17.290  1.00  0.00     0.005 C 
HETATM    4  C   LIG     1      14.444  32.812  17.936  1.00  0.00    -0.016 C 
HETATM    5  C   LIG     1      15.346  32.069  18.936  1.00  0.00     0.010 C 
HETATM    6  C   LIG     1      15.248  33.539  16.849  1.00  0.00     0.036 C 
HETATM    7  C   LIG     1      15.888  32.584  15.819  1.00  0.00     0.122 C 
ENDROOT
BRANCH   1   8
HETATM    8  C   LIG     1      15.541  30.508  14.275  1.00  0.00    -0.016 C 
HETATM    9  C   LIG     1      14.714  29.208  14.198  1.00  0.00     0.010 C 
HETATM   10  C   LIG     1      15.802  31.001  12.838  1.00  0.00     0.010 C 
ENDBRANCH   1   8
BRANCH   7  11
HETATM   11  O   LIG     1      16.530  33.363  14.842  1.00  0.00    -0.395 OA
HETATM   12  H   LIG     1      16.606  34.290  15.194  1.00  0.00     0.210 HD
ENDBRANCH   7  11
TORSDOF 2
ENDMDL
MODEL 17
REMARK VINA RESULT:      -4.4      8.176     10.437
REMARK  2 active torsions:
REMARK  status: ('A' for Active; 'I' for Inactive)
REMARK    1  A    between atoms: C_2  and  C_3 
REMARK    2  A    between atoms: C_9  and  O_10 
ROOT
HETATM    1  C   LIG     1      14.838  30.734  15.530  1.00  0.00     0.018 C 
HETATM    2  C   LIG     1      15.901  31.868  15.522  1.00  0.00     0.008 C 
HETATM    3  C   LIG     1      16.156  32.468  16.908  1.00  0.00     0.005 C 
HETATM    4  C   LIG     1      14.871  32.989  17.566  1.00  0.00    -0.016 C 
HETATM    5  C   LIG     1      14.336  34.262  16.891  1.00  0.00     0.010 C 
HETATM    6  C   LIG     1      13.822  31.870  17.625  1.00  0.00     0.036 C 
HETATM    7  C   LIG     1      13.538  31.224  16.252  1.00  0.00     0.122 C 
ENDROOT
BRANCH   1   8
HETATM    8  C   LIG     1      14.562  30.244  14.060  1.00  0.00    -0.016 C 
HETATM    9  C   LIG     1      15.481  30.939  13.034  1.00  0.00     0.010 C 
HETATM   10  C   LIG     1      14.715  28.720  13.893  1.00  0.00     0.010 C 
ENDBRANCH   1   8
BRANCH   7  11
HETATM   11  O   LIG     1      12.623  30.174  16.446  1.00  0.00    -0.395 OA
HETATM   12  H   LIG     1      12.218  30.287  17.346  1.00  0.00     0.210 HD
ENDBRANCH   7  11
TORSDOF 2
ENDMDL
MODEL 18
REMARK VINA RESULT:      -4.1      8.439     10.002
REMARK  2 active torsions:
REMARK  status: ('A' for Active; 'I' for Inactive)
REMARK    1  A    between atoms: C_2  and  C_3 
REMARK    2  A    between atoms: C_9  and  O_10 
ROOT
HETATM    1  C   LIG     1      16.287  32.054  15.657  1.00  0.00     0.018 C 
HETATM    2  C   LIG     1      15.676  32.976  16.749  1.00  0.00     0.008 C 
HETATM    3  C   LIG     1      14.747  32.235  17.716  1.00  0.00     0.005 C 
HETATM    4  C   LIG     1      13.614  31.498  16.991  1.00  0.00    -0.016 C 
HETATM    5  C   LIG     1      12.567  32.457  16.401  1.00  0.00     0.010 C 
HETATM    6  C   LIG     1      14.198  30.547  15.937  1.00  0.00     0.036 C 
HETATM    7  C   LIG     1      15.152  31.244  14.943  1.00  0.00     0.122 C 
ENDROOT
BRANCH   1   8
HETATM    8  C   LIG     1      17.142  32.907  14.649  1.00  0.00    -0.016 C 
HETATM    9  C   LIG     1      16.569  32.860  13.217  1.00  0.00     0.010 C 
HETATM   10  C   LIG     1      17.275  34.384  15.069  1.00  0.00     0.010 C 
ENDBRANCH   1   8
BRANCH   7  11
HETATM   11  O   LIG     1      15.674  30.265  14.081  1.00  0.00    -0.395 OA
HETATM   12  H   LIG     1      16.604  30.069  14.373  1.00  0.00     0.210 HD
ENDBRANCH   7  11
TORSDOF 2
ENDMDL
MODEL 19
REMARK VINA RESULT:      -4.0     15.194     16.515
REMARK  2 active torsions:
REMARK  status: ('A' for Active; 'I' for Inactive)
REMARK    1  A    between atoms: C_2  and  C_3 
REMARK    2  A    between atoms: C_9  and  O_10 
ROOT
HETATM    1  C   LIG     1      25.415  22.890  19.536  1.00  0.00     0.018 C 
HETATM    2  C   LIG     1      25.108  23.541  20.914  1.00  0.00     0.008 C 
HETATM    3  C   LIG     1      24.459  22.575  21.909  1.00  0.00     0.005 C 
HETATM    4  C   LIG     1      23.176  21.940  21.358  1.00  0.00    -0.016 C 
HETATM    5  C   LIG     1      22.014  22.943  21.265  1.00  0.00     0.010 C 
HETATM    6  C   LIG     1      23.466  21.251  20.018  1.00  0.00     0.036 C 
HETATM    7  C   LIG     1      24.132  22.182  18.982  1.00  0.00     0.122 C 
ENDROOT
BRANCH   1   8
HETATM    8  C   LIG     1      25.982  23.970  18.543  1.00  0.00    -0.016 C 
HETATM    9  C   LIG     1      26.131  25.352  19.212  1.00  0.00     0.010 C 
HETATM   10  C   LIG     1      27.343  23.577  17.938  1.00  0.00     0.010 C 
ENDBRANCH   1   8
BRANCH   7  11
HETATM   11  O   LIG     1      24.412  21.424  17.832  1.00  0.00    -0.395 OA
HETATM   12  H   LIG     1      25.158  21.870  17.349  1.00  0.00     0.210 HD
ENDBRANCH   7  11
TORSDOF 2
ENDMDL
MODEL 20
REMARK VINA RESULT:      -3.9     17.899     18.958
REMARK  2 active torsions:
REMARK  status: ('A' for Active; 'I' for Inactive)
REMARK    1  A    between atoms: C_2  and  C_3 
REMARK    2  A    between atoms: C_9  and  O_10 
ROOT
HETATM    1  C   LIG     1      22.397  23.036  35.346  1.00  0.00     0.018 C 
HETATM    2  C   LIG     1      22.435  21.639  34.666  1.00  0.00     0.008 C 
HETATM    3  C   LIG     1      21.265  21.401  33.707  1.00  0.00     0.005 C 
HETATM    4  C   LIG     1      19.902  21.592  34.386  1.00  0.00    -0.016 C 
HETATM    5  C   LIG     1      19.577  20.468  35.383  1.00  0.00     0.010 C 
HETATM    6  C   LIG     1      19.827  22.985  35.026  1.00  0.00     0.036 C 
HETATM    7  C   LIG     1      20.992  23.279  35.995  1.00  0.00     0.122 C 
ENDROOT
BRANCH   1   8
HETATM    8  C   LIG     1      23.570  23.161  36.387  1.00  0.00    -0.016 C 
HETATM    9  C   LIG     1      23.245  22.446  37.715  1.00  0.00     0.010 C 
HETATM   10  C   LIG     1      24.909  22.612  35.857  1.00  0.00     0.010 C 
ENDBRANCH   1   8
BRANCH   7  11
HETATM   11  O   LIG     1      20.853  24.599  36.457  1.00  0.00    -0.395 OA
HETATM   12  H   LIG     1      20.503  25.147  35.705  1.00  0.00     0.210 HD
ENDBRANCH   7  11
TORSDOF 2
ENDMDL
