REMARK  2 active torsions:
REMARK  status: ('A' for Active; 'I' for Inactive)
REMARK    1  A    between atoms: C_4  and  O_5 
REMARK    2  A    between atoms: C_6  and  C_7 
ROOT
HETATM    1  C   LIG     1       3.883   0.384   0.130  1.00  0.00     0.048 C 
HETATM    2  C   LIG     1       2.393   0.230   0.043  1.00  0.00    -0.059 A 
HETATM    3  C   LIG     1       1.846  -0.931  -0.513  1.00  0.00     0.043 A 
HETATM    4  C   LIG     1       0.459  -1.105  -0.597  1.00  0.00     0.072 A 
HETATM    5  C   LIG     1      -0.413  -0.068  -0.167  1.00  0.00    -0.022 A 
HETATM    6  C   LIG     1       0.155   1.075   0.435  1.00  0.00     0.011 A 
HETATM    7  C   LIG     1       1.540   1.226   0.528  1.00  0.00     0.007 A 
ENDROOT
BRANCH   5   8
HETATM    8  C   LIG     1      -1.929  -0.204  -0.278  1.00  0.00     0.013 C 
HETATM    9  C   LIG     1      -2.638   1.124  -0.595  1.00  0.00     0.015 C 
HETATM   10  C   LIG     1      -2.500  -0.830   0.998  1.00  0.00     0.015 C 
ENDBRANCH   5   8
BRANCH   4  11
HETATM   11  O   LIG     1      -0.004  -2.327  -1.094  1.00  0.00    -0.360 OA
HETATM   12  H   LIG     1      -0.970  -2.621  -1.067  1.00  0.00     0.217 HD
ENDBRANCH   4  11
TORSDOF 2
