MODEL 1
REMARK VINA RESULT:      -7.0      0.000      0.000
REMARK  2 active torsions:
REMARK  status: ('A' for Active; 'I' for Inactive)
REMARK    1  A    between atoms: C_4  and  O_5 
REMARK    2  A    between atoms: C_6  and  C_7 
ROOT
HETATM    1  C   LIG     1      20.419  39.047  19.111  1.00  0.00     0.048 C 
HETATM    2  C   LIG     1      19.359  38.338  19.903  1.00  0.00    -0.059 A 
HETATM    3  C   LIG     1      18.707  39.006  20.944  1.00  0.00     0.043 A 
HETATM    4  C   LIG     1      17.707  38.371  21.692  1.00  0.00     0.072 A 
HETATM    5  C   LIG     1      17.385  37.011  21.435  1.00  0.00    -0.022 A 
HETATM    6  C   LIG     1      18.019  36.368  20.351  1.00  0.00     0.011 A 
HETATM    7  C   LIG     1      19.001  37.020  19.602  1.00  0.00     0.007 A 
ENDROOT
BRANCH   5   8
HETATM    8  C   LIG     1      16.330  36.273  22.254  1.00  0.00     0.013 C 
HETATM    9  C   LIG     1      16.907  35.125  23.100  1.00  0.00     0.015 C 
HETATM   10  C   LIG     1      15.212  35.762  21.341  1.00  0.00     0.015 C 
ENDBRANCH   5   8
BRANCH   4  11
HETATM   11  O   LIG     1      17.051  39.135  22.662  1.00  0.00    -0.360 OA
HETATM   12  H   LIG     1      16.735  40.084  22.519  1.00  0.00     0.217 HD
ENDBRANCH   4  11
TORSDOF 2
ENDMDL
MODEL 2
REMARK VINA RESULT:      -7.0      2.137      4.282
REMARK  2 active torsions:
REMARK  status: ('A' for Active; 'I' for Inactive)
REMARK    1  A    between atoms: C_4  and  O_5 
REMARK    2  A    between atoms: C_6  and  C_7 
ROOT
HETATM    1  C   LIG     1      18.348  36.243  27.022  1.00  0.00     0.048 C 
HETATM    2  C   LIG     1      17.836  36.266  25.612  1.00  0.00    -0.059 A 
HETATM    3  C   LIG     1      17.696  37.486  24.943  1.00  0.00     0.043 A 
HETATM    4  C   LIG     1      17.230  37.536  23.624  1.00  0.00     0.072 A 
HETATM    5  C   LIG     1      16.836  36.339  22.966  1.00  0.00    -0.022 A 
HETATM    6  C   LIG     1      17.029  35.113  23.638  1.00  0.00     0.011 A 
HETATM    7  C   LIG     1      17.512  35.079  24.947  1.00  0.00     0.007 A 
ENDROOT
BRANCH   5   8
HETATM    8  C   LIG     1      16.287  36.356  21.542  1.00  0.00     0.013 C 
HETATM    9  C   LIG     1      15.167  35.327  21.309  1.00  0.00     0.015 C 
HETATM   10  C   LIG     1      17.422  36.156  20.533  1.00  0.00     0.015 C 
ENDBRANCH   5   8
BRANCH   4  11
HETATM   11  O   LIG     1      17.194  38.788  23.004  1.00  0.00    -0.360 OA
HETATM   12  H   LIG     1      17.677  39.010  22.144  1.00  0.00     0.217 HD
ENDBRANCH   4  11
TORSDOF 2
ENDMDL
MODEL 3
REMARK VINA RESULT:      -6.5      2.580      3.874
REMARK  2 active torsions:
REMARK  status: ('A' for Active; 'I' for Inactive)
REMARK    1  A    between atoms: C_4  and  O_5 
REMARK    2  A    between atoms: C_6  and  C_7 
ROOT
HETATM    1  C   LIG     1      16.406  35.873  20.128  1.00  0.00     0.048 C 
HETATM    2  C   LIG     1      16.678  35.956  21.601  1.00  0.00    -0.059 A 
HETATM    3  C   LIG     1      16.586  37.189  22.256  1.00  0.00     0.043 A 
HETATM    4  C   LIG     1      16.824  37.293  23.632  1.00  0.00     0.072 A 
HETATM    5  C   LIG     1      17.222  36.146  24.372  1.00  0.00    -0.022 A 
HETATM    6  C   LIG     1      17.262  34.903  23.705  1.00  0.00     0.011 A 
HETATM    7  C   LIG     1      17.004  34.812  22.336  1.00  0.00     0.007 A 
ENDROOT
BRANCH   5   8
HETATM    8  C   LIG     1      17.527  36.227  25.865  1.00  0.00     0.013 C 
HETATM    9  C   LIG     1      18.774  37.069  26.186  1.00  0.00     0.015 C 
HETATM   10  C   LIG     1      17.659  34.820  26.456  1.00  0.00     0.015 C 
ENDBRANCH   5   8
BRANCH   4  11
HETATM   11  O   LIG     1      16.635  38.547  24.222  1.00  0.00    -0.360 OA
HETATM   12  H   LIG     1      16.198  39.331  23.758  1.00  0.00     0.217 HD
ENDBRANCH   4  11
TORSDOF 2
ENDMDL
MODEL 4
REMARK VINA RESULT:      -6.5      2.512      4.978
REMARK  2 active torsions:
REMARK  status: ('A' for Active; 'I' for Inactive)
REMARK    1  A    between atoms: C_4  and  O_5 
REMARK    2  A    between atoms: C_6  and  C_7 
ROOT
HETATM    1  C   LIG     1      18.210  34.744  26.704  1.00  0.00     0.048 C 
HETATM    2  C   LIG     1      17.892  35.651  25.552  1.00  0.00    -0.059 A 
HETATM    3  C   LIG     1      17.317  35.124  24.391  1.00  0.00     0.043 A 
HETATM    4  C   LIG     1      17.000  35.949  23.305  1.00  0.00     0.072 A 
HETATM    5  C   LIG     1      17.318  37.334  23.351  1.00  0.00    -0.022 A 
HETATM    6  C   LIG     1      17.854  37.857  24.547  1.00  0.00     0.011 A 
HETATM    7  C   LIG     1      18.147  37.024  25.629  1.00  0.00     0.007 A 
ENDROOT
BRANCH   5   8
HETATM    8  C   LIG     1      17.025  38.258  22.173  1.00  0.00     0.013 C 
HETATM    9  C   LIG     1      18.201  39.185  21.818  1.00  0.00     0.015 C 
HETATM   10  C   LIG     1      15.756  39.074  22.442  1.00  0.00     0.015 C 
ENDBRANCH   5   8
BRANCH   4  11
HETATM   11  O   LIG     1      16.356  35.355  22.216  1.00  0.00    -0.360 OA
HETATM   12  H   LIG     1      16.421  35.692  21.266  1.00  0.00     0.217 HD
ENDBRANCH   4  11
TORSDOF 2
ENDMDL
MODEL 5
REMARK VINA RESULT:      -6.4      1.791      4.391
REMARK  2 active torsions:
REMARK  status: ('A' for Active; 'I' for Inactive)
REMARK    1  A    between atoms: C_4  and  O_5 
REMARK    2  A    between atoms: C_6  and  C_7 
ROOT
HETATM    1  C   LIG     1      16.467  37.582  24.223  1.00  0.00     0.048 C 
HETATM    2  C   LIG     1      17.192  37.756  22.921  1.00  0.00    -0.059 A 
HETATM    3  C   LIG     1      17.092  36.772  21.932  1.00  0.00     0.043 A 
HETATM    4  C   LIG     1      17.749  36.914  20.704  1.00  0.00     0.072 A 
HETATM    5  C   LIG     1      18.580  38.044  20.472  1.00  0.00    -0.022 A 
HETATM    6  C   LIG     1      18.631  39.050  21.460  1.00  0.00     0.011 A 
HETATM    7  C   LIG     1      17.955  38.902  22.673  1.00  0.00     0.007 A 
ENDROOT
BRANCH   5   8
HETATM    8  C   LIG     1      19.344  38.216  19.162  1.00  0.00     0.013 C 
HETATM    9  C   LIG     1      20.811  38.633  19.362  1.00  0.00     0.015 C 
HETATM   10  C   LIG     1      18.619  39.212  18.252  1.00  0.00     0.015 C 
ENDBRANCH   5   8
BRANCH   4  11
HETATM   11  O   LIG     1      17.533  35.922  19.743  1.00  0.00    -0.360 OA
HETATM   12  H   LIG     1      16.766  35.265  19.769  1.00  0.00     0.217 HD
ENDBRANCH   4  11
TORSDOF 2
ENDMDL
MODEL 6
REMARK VINA RESULT:      -6.4      2.643      4.891
REMARK  2 active torsions:
REMARK  status: ('A' for Active; 'I' for Inactive)
REMARK    1  A    between atoms: C_4  and  O_5 
REMARK    2  A    between atoms: C_6  and  C_7 
ROOT
HETATM    1  C   LIG     1      18.726  34.578  26.920  1.00  0.00     0.048 C 
HETATM    2  C   LIG     1      18.065  35.472  25.913  1.00  0.00    -0.059 A 
HETATM    3  C   LIG     1      17.934  36.839  26.177  1.00  0.00     0.043 A 
HETATM    4  C   LIG     1      17.330  37.698  25.250  1.00  0.00     0.072 A 
HETATM    5  C   LIG     1      16.788  37.172  24.046  1.00  0.00    -0.022 A 
HETATM    6  C   LIG     1      16.972  35.800  23.774  1.00  0.00     0.011 A 
HETATM    7  C   LIG     1      17.592  34.960  24.701  1.00  0.00     0.007 A 
ENDROOT
BRANCH   5   8
HETATM    8  C   LIG     1      16.089  38.070  23.028  1.00  0.00     0.013 C 
HETATM    9  C   LIG     1      15.054  37.323  22.169  1.00  0.00     0.015 C 
HETATM   10  C   LIG     1      17.122  38.772  22.142  1.00  0.00     0.015 C 
ENDBRANCH   5   8
BRANCH   4  11
HETATM   11  O   LIG     1      17.310  39.061  25.559  1.00  0.00    -0.360 OA
HETATM   12  H   LIG     1      17.396  39.433  26.494  1.00  0.00     0.217 HD
ENDBRANCH   4  11
TORSDOF 2
ENDMDL
MODEL 7
REMARK VINA RESULT:      -6.2      1.455      4.113
REMARK  2 active torsions:
REMARK  status: ('A' for Active; 'I' for Inactive)
REMARK    1  A    between atoms: C_4  and  O_5 
REMARK    2  A    between atoms: C_6  and  C_7 
ROOT
HETATM    1  C   LIG     1      14.984  33.993  21.149  1.00  0.00     0.048 C 
HETATM    2  C   LIG     1      15.752  35.263  21.372  1.00  0.00    -0.059 A 
HETATM    3  C   LIG     1      15.181  36.297  22.120  1.00  0.00     0.043 A 
HETATM    4  C   LIG     1      15.880  37.489  22.352  1.00  0.00     0.072 A 
HETATM    5  C   LIG     1      17.165  37.681  21.775  1.00  0.00    -0.022 A 
HETATM    6  C   LIG     1      17.745  36.609  21.064  1.00  0.00     0.011 A 
HETATM    7  C   LIG     1      17.042  35.420  20.856  1.00  0.00     0.007 A 
ENDROOT
BRANCH   5   8
HETATM    8  C   LIG     1      17.941  38.980  21.973  1.00  0.00     0.013 C 
HETATM    9  C   LIG     1      18.801  39.367  20.757  1.00  0.00     0.015 C 
HETATM   10  C   LIG     1      18.800  38.897  23.238  1.00  0.00     0.015 C 
ENDBRANCH   5   8
BRANCH   4  11
HETATM   11  O   LIG     1      15.269  38.439  23.175  1.00  0.00    -0.360 OA
HETATM   12  H   LIG     1      14.588  38.219  23.888  1.00  0.00     0.217 HD
ENDBRANCH   4  11
TORSDOF 2
ENDMDL
MODEL 8
REMARK VINA RESULT:      -6.1      1.063      4.169
REMARK  2 active torsions:
REMARK  status: ('A' for Active; 'I' for Inactive)
REMARK    1  A    between atoms: C_4  and  O_5 
REMARK    2  A    between atoms: C_6  and  C_7 
ROOT
HETATM    1  C   LIG     1      16.272  35.382  22.619  1.00  0.00     0.048 C 
HETATM    2  C   LIG     1      17.080  36.324  21.775  1.00  0.00    -0.059 A 
HETATM    3  C   LIG     1      17.396  37.596  22.261  1.00  0.00     0.043 A 
HETATM    4  C   LIG     1      18.157  38.491  21.498  1.00  0.00     0.072 A 
HETATM    5  C   LIG     1      18.570  38.130  20.187  1.00  0.00    -0.022 A 
HETATM    6  C   LIG     1      18.284  36.826  19.731  1.00  0.00     0.011 A 
HETATM    7  C   LIG     1      17.539  35.939  20.511  1.00  0.00     0.007 A 
ENDROOT
BRANCH   5   8
HETATM    8  C   LIG     1      19.367  39.092  19.310  1.00  0.00     0.013 C 
HETATM    9  C   LIG     1      18.864  39.151  17.857  1.00  0.00     0.015 C 
HETATM   10  C   LIG     1      20.857  38.736  19.351  1.00  0.00     0.015 C 
ENDBRANCH   5   8
BRANCH   4  11
HETATM   11  O   LIG     1      18.494  39.712  22.090  1.00  0.00    -0.360 OA
HETATM   12  H   LIG     1      17.892  40.221  22.722  1.00  0.00     0.217 HD
ENDBRANCH   4  11
TORSDOF 2
ENDMDL
MODEL 9
REMARK VINA RESULT:      -5.7      8.244      9.549
REMARK  2 active torsions:
REMARK  status: ('A' for Active; 'I' for Inactive)
REMARK    1  A    between atoms: C_4  and  O_5 
REMARK    2  A    between atoms: C_6  and  C_7 
ROOT
HETATM    1  C   LIG     1      15.182  33.975  17.688  1.00  0.00     0.048 C 
HETATM    2  C   LIG     1      14.974  32.833  16.738  1.00  0.00    -0.059 A 
HETATM    3  C   LIG     1      15.762  32.734  15.587  1.00  0.00     0.043 A 
HETATM    4  C   LIG     1      15.596  31.672  14.689  1.00  0.00     0.072 A 
HETATM    5  C   LIG     1      14.575  30.708  14.912  1.00  0.00    -0.022 A 
HETATM    6  C   LIG     1      13.822  30.797  16.102  1.00  0.00     0.011 A 
HETATM    7  C   LIG     1      14.012  31.852  16.997  1.00  0.00     0.007 A 
ENDROOT
BRANCH   5   8
HETATM    8  C   LIG     1      14.337  29.559  13.937  1.00  0.00     0.013 C 
HETATM    9  C   LIG     1      12.986  28.854  14.144  1.00  0.00     0.015 C 
HETATM   10  C   LIG     1      15.489  28.552  14.013  1.00  0.00     0.015 C 
ENDBRANCH   5   8
BRANCH   4  11
HETATM   11  O   LIG     1      16.477  31.606  13.606  1.00  0.00    -0.360 OA
HETATM   12  H   LIG     1      16.503  30.845  12.942  1.00  0.00     0.217 HD
ENDBRANCH   4  11
TORSDOF 2
ENDMDL
MODEL 10
REMARK VINA RESULT:      -5.6      5.247      6.858
REMARK  2 active torsions:
REMARK  status: ('A' for Active; 'I' for Inactive)
REMARK    1  A    between atoms: C_4  and  O_5 
REMARK    2  A    between atoms: C_6  and  C_7 
ROOT
HETATM    1  C   LIG     1      16.051  34.455  21.212  1.00  0.00     0.048 C 
HETATM    2  C   LIG     1      15.596  33.808  19.937  1.00  0.00    -0.059 A 
HETATM    3  C   LIG     1      15.562  34.553  18.753  1.00  0.00     0.043 A 
HETATM    4  C   LIG     1      15.151  33.971  17.547  1.00  0.00     0.072 A 
HETATM    5  C   LIG     1      14.704  32.622  17.527  1.00  0.00    -0.022 A 
HETATM    6  C   LIG     1      14.790  31.872  18.720  1.00  0.00     0.011 A 
HETATM    7  C   LIG     1      15.220  32.462  19.911  1.00  0.00     0.007 A 
ENDROOT
BRANCH   5   8
HETATM    8  C   LIG     1      14.212  31.964  16.241  1.00  0.00     0.013 C 
HETATM    9  C   LIG     1      13.267  30.776  16.488  1.00  0.00     0.015 C 
HETATM   10  C   LIG     1      15.402  31.537  15.375  1.00  0.00     0.015 C 
ENDBRANCH   5   8
BRANCH   4  11
HETATM   11  O   LIG     1      15.222  34.763  16.398  1.00  0.00    -0.360 OA
HETATM   12  H   LIG     1      14.435  34.965  15.798  1.00  0.00     0.217 HD
ENDBRANCH   4  11
TORSDOF 2
ENDMDL
MODEL 11
REMARK VINA RESULT:      -5.5      1.850      4.389
REMARK  2 active torsions:
REMARK  status: ('A' for Active; 'I' for Inactive)
REMARK    1  A    between atoms: C_4  and  O_5 
REMARK    2  A    between atoms: C_6  and  C_7 
ROOT
HETATM    1  C   LIG     1      14.760  34.451  21.363  1.00  0.00     0.048 C 
HETATM    2  C   LIG     1      15.801  35.531  21.339  1.00  0.00    -0.059 A 
HETATM    3  C   LIG     1      16.829  35.484  20.392  1.00  0.00     0.043 A 
HETATM    4  C   LIG     1      17.808  36.485  20.341  1.00  0.00     0.072 A 
HETATM    5  C   LIG     1      17.798  37.536  21.298  1.00  0.00    -0.022 A 
HETATM    6  C   LIG     1      16.726  37.594  22.214  1.00  0.00     0.011 A 
HETATM    7  C   LIG     1      15.748  36.598  22.241  1.00  0.00     0.007 A 
ENDROOT
BRANCH   5   8
HETATM    8  C   LIG     1      18.869  38.623  21.299  1.00  0.00     0.013 C 
HETATM    9  C   LIG     1      19.006  39.342  22.652  1.00  0.00     0.015 C 
HETATM   10  C   LIG     1      18.602  39.631  20.177  1.00  0.00     0.015 C 
ENDBRANCH   5   8
BRANCH   4  11
HETATM   11  O   LIG     1      18.754  36.403  19.315  1.00  0.00    -0.360 OA
HETATM   12  H   LIG     1      19.753  36.388  19.464  1.00  0.00     0.217 HD
ENDBRANCH   4  11
TORSDOF 2
ENDMDL
MODEL 12
REMARK VINA RESULT:      -5.5      8.220      9.475
REMARK  2 active torsions:
REMARK  status: ('A' for Active; 'I' for Inactive)
REMARK    1  A    between atoms: C_4  and  O_5 
REMARK    2  A    between atoms: C_6  and  C_7 
ROOT
HETATM    1  C   LIG     1      15.177  34.265  17.250  1.00  0.00     0.048 C 
HETATM    2  C   LIG     1      14.889  32.963  16.562  1.00  0.00    -0.059 A 
HETATM    3  C   LIG     1      13.821  32.171  16.995  1.00  0.00     0.043 A 
HETATM    4  C   LIG     1      13.524  30.956  16.364  1.00  0.00     0.072 A 
HETATM    5  C   LIG     1      14.349  30.486  15.307  1.00  0.00    -0.022 A 
HETATM    6  C   LIG     1      15.392  31.321  14.852  1.00  0.00     0.011 A 
HETATM    7  C   LIG     1      15.664  32.538  15.480  1.00  0.00     0.007 A 
ENDROOT
BRANCH   5   8
HETATM    8  C   LIG     1      14.081  29.149  14.620  1.00  0.00     0.013 C 
HETATM    9  C   LIG     1      15.214  28.711  13.677  1.00  0.00     0.015 C 
HETATM   10  C   LIG     1      12.744  29.195  13.874  1.00  0.00     0.015 C 
ENDBRANCH   5   8
BRANCH   4  11
HETATM   11  O   LIG     1      12.393  30.264  16.808  1.00  0.00    -0.360 OA
HETATM   12  H   LIG     1      12.355  29.729  17.664  1.00  0.00     0.217 HD
ENDBRANCH   4  11
TORSDOF 2
ENDMDL
MODEL 13
REMARK VINA RESULT:      -5.3      5.193      6.740
REMARK  2 active torsions:
REMARK  status: ('A' for Active; 'I' for Inactive)
REMARK    1  A    between atoms: C_4  and  O_5 
REMARK    2  A    between atoms: C_6  and  C_7 
ROOT
HETATM    1  C   LIG     1      16.137  35.320  20.970  1.00  0.00     0.048 C 
HETATM    2  C   LIG     1      15.672  34.359  19.915  1.00  0.00    -0.059 A 
HETATM    3  C   LIG     1      15.367  33.039  20.263  1.00  0.00     0.043 A 
HETATM    4  C   LIG     1      14.921  32.125  19.301  1.00  0.00     0.072 A 
HETATM    5  C   LIG     1      14.830  32.518  17.938  1.00  0.00    -0.022 A 
HETATM    6  C   LIG     1      15.096  33.865  17.613  1.00  0.00     0.011 A 
HETATM    7  C   LIG     1      15.522  34.770  18.587  1.00  0.00     0.007 A 
ENDROOT
BRANCH   5   8
HETATM    8  C   LIG     1      14.386  31.540  16.854  1.00  0.00     0.013 C 
HETATM    9  C   LIG     1      15.128  31.730  15.520  1.00  0.00     0.015 C 
HETATM   10  C   LIG     1      12.871  31.630  16.647  1.00  0.00     0.015 C 
ENDBRANCH   5   8
BRANCH   4  11
HETATM   11  O   LIG     1      14.563  30.849  19.747  1.00  0.00    -0.360 OA
HETATM   12  H   LIG     1      13.996  30.202  19.219  1.00  0.00     0.217 HD
ENDBRANCH   4  11
TORSDOF 2
ENDMDL
MODEL 14
REMARK VINA RESULT:      -5.3      7.979      8.972
REMARK  2 active torsions:
REMARK  status: ('A' for Active; 'I' for Inactive)
REMARK    1  A    between atoms: C_4  and  O_5 
REMARK    2  A    between atoms: C_6  and  C_7 
ROOT
HETATM    1  C   LIG     1      17.887  33.630  12.902  1.00  0.00     0.048 C 
HETATM    2  C   LIG     1      16.926  32.915  13.806  1.00  0.00    -0.059 A 
HETATM    3  C   LIG     1      16.194  31.827  13.320  1.00  0.00     0.043 A 
HETATM    4  C   LIG     1      15.299  31.135  14.145  1.00  0.00     0.072 A 
HETATM    5  C   LIG     1      15.081  31.573  15.480  1.00  0.00    -0.022 A 
HETATM    6  C   LIG     1      15.864  32.641  15.968  1.00  0.00     0.011 A 
HETATM    7  C   LIG     1      16.766  33.310  15.138  1.00  0.00     0.007 A 
ENDROOT
BRANCH   5   8
HETATM    8  C   LIG     1      14.086  30.869  16.397  1.00  0.00     0.013 C 
HETATM    9  C   LIG     1      12.654  30.839  15.834  1.00  0.00     0.015 C 
HETATM   10  C   LIG     1      14.105  31.507  17.790  1.00  0.00     0.015 C 
ENDBRANCH   5   8
BRANCH   4  11
HETATM   11  O   LIG     1      14.666  30.012  13.603  1.00  0.00    -0.360 OA
HETATM   12  H   LIG     1      15.063  29.432  12.878  1.00  0.00     0.217 HD
ENDBRANCH   4  11
TORSDOF 2
ENDMDL
MODEL 15
REMARK VINA RESULT:      -5.3      6.615      7.490
REMARK  2 active torsions:
REMARK  status: ('A' for Active; 'I' for Inactive)
REMARK    1  A    between atoms: C_4  and  O_5 
REMARK    2  A    between atoms: C_6  and  C_7 
ROOT
HETATM    1  C   LIG     1      18.281  33.539  13.318  1.00  0.00     0.048 C 
HETATM    2  C   LIG     1      17.176  33.157  14.259  1.00  0.00    -0.059 A 
HETATM    3  C   LIG     1      16.876  33.981  15.348  1.00  0.00     0.043 A 
HETATM    4  C   LIG     1      15.843  33.654  16.236  1.00  0.00     0.072 A 
HETATM    5  C   LIG     1      15.123  32.440  16.069  1.00  0.00    -0.022 A 
HETATM    6  C   LIG     1      15.407  31.645  14.938  1.00  0.00     0.011 A 
HETATM    7  C   LIG     1      16.428  31.995  14.051  1.00  0.00     0.007 A 
ENDROOT
BRANCH   5   8
HETATM    8  C   LIG     1      14.017  32.029  17.037  1.00  0.00     0.013 C 
HETATM    9  C   LIG     1      14.535  31.696  18.447  1.00  0.00     0.015 C 
HETATM   10  C   LIG     1      13.219  30.855  16.463  1.00  0.00     0.015 C 
ENDBRANCH   5   8
BRANCH   4  11
HETATM   11  O   LIG     1      15.557  34.571  17.252  1.00  0.00    -0.360 OA
HETATM   12  H   LIG     1      14.816  34.456  17.928  1.00  0.00     0.217 HD
ENDBRANCH   4  11
TORSDOF 2
ENDMDL
MODEL 16
REMARK VINA RESULT:      -5.2      2.704      4.138
REMARK  2 active torsions:
REMARK  status: ('A' for Active; 'I' for Inactive)
REMARK    1  A    between atoms: C_4  and  O_5 
REMARK    2  A    between atoms: C_6  and  C_7 
ROOT
HETATM    1  C   LIG     1      16.986  39.096  21.988  1.00  0.00     0.048 C 
HETATM    2  C   LIG     1      17.130  37.955  22.952  1.00  0.00    -0.059 A 
HETATM    3  C   LIG     1      17.386  38.214  24.302  1.00  0.00     0.043 A 
HETATM    4  C   LIG     1      17.514  37.168  25.224  1.00  0.00     0.072 A 
HETATM    5  C   LIG     1      17.443  35.819  24.782  1.00  0.00    -0.022 A 
HETATM    6  C   LIG     1      17.136  35.577  23.426  1.00  0.00     0.011 A 
HETATM    7  C   LIG     1      16.993  36.631  22.521  1.00  0.00     0.007 A 
ENDROOT
BRANCH   5   8
HETATM    8  C   LIG     1      17.616  34.652  25.750  1.00  0.00     0.013 C 
HETATM    9  C   LIG     1      16.422  34.469  26.703  1.00  0.00     0.015 C 
HETATM   10  C   LIG     1      18.919  34.808  26.540  1.00  0.00     0.015 C 
ENDBRANCH   5   8
BRANCH   4  11
HETATM   11  O   LIG     1      17.692  37.517  26.567  1.00  0.00    -0.360 OA
HETATM   12  H   LIG     1      16.939  37.604  27.234  1.00  0.00     0.217 HD
ENDBRANCH   4  11
TORSDOF 2
ENDMDL
MODEL 17
REMARK VINA RESULT:      -5.2      2.097      3.944
REMARK  2 active torsions:
REMARK  status: ('A' for Active; 'I' for Inactive)
REMARK    1  A    between atoms: C_4  and  O_5 
REMARK    2  A    between atoms: C_6  and  C_7 
ROOT
HETATM    1  C   LIG     1      15.658  33.619  20.089  1.00  0.00     0.048 C 
HETATM    2  C   LIG     1      16.191  34.809  20.832  1.00  0.00    -0.059 A 
HETATM    3  C   LIG     1      17.090  35.676  20.203  1.00  0.00     0.043 A 
HETATM    4  C   LIG     1      17.594  36.799  20.870  1.00  0.00     0.072 A 
HETATM    5  C   LIG     1      17.239  37.037  22.226  1.00  0.00    -0.022 A 
HETATM    6  C   LIG     1      16.294  36.180  22.829  1.00  0.00     0.011 A 
HETATM    7  C   LIG     1      15.786  35.074  22.144  1.00  0.00     0.007 A 
ENDROOT
BRANCH   5   8
HETATM    8  C   LIG     1      17.798  38.228  22.999  1.00  0.00     0.013 C 
HETATM    9  C   LIG     1      17.889  37.982  24.515  1.00  0.00     0.015 C 
HETATM   10  C   LIG     1      16.974  39.486  22.705  1.00  0.00     0.015 C 
ENDBRANCH   5   8
BRANCH   4  11
HETATM   11  O   LIG     1      18.426  37.656  20.143  1.00  0.00    -0.360 OA
HETATM   12  H   LIG     1      18.269  38.649  20.044  1.00  0.00     0.217 HD
ENDBRANCH   4  11
TORSDOF 2
ENDMDL
MODEL 18
REMARK VINA RESULT:      -5.1      2.738      4.303
REMARK  2 active torsions:
REMARK  status: ('A' for Active; 'I' for Inactive)
REMARK    1  A    between atoms: C_4  and  O_5 
REMARK    2  A    between atoms: C_6  and  C_7 
ROOT
HETATM    1  C   LIG     1      15.952  35.241  20.429  1.00  0.00     0.048 C 
HETATM    2  C   LIG     1      16.533  35.821  21.684  1.00  0.00    -0.059 A 
HETATM    3  C   LIG     1      16.648  35.025  22.829  1.00  0.00     0.043 A 
HETATM    4  C   LIG     1      17.196  35.537  24.011  1.00  0.00     0.072 A 
HETATM    5  C   LIG     1      17.591  36.902  24.076  1.00  0.00    -0.022 A 
HETATM    6  C   LIG     1      17.512  37.676  22.899  1.00  0.00     0.011 A 
HETATM    7  C   LIG     1      16.980  37.145  21.723  1.00  0.00     0.007 A 
ENDROOT
BRANCH   5   8
HETATM    8  C   LIG     1      18.156  37.508  25.357  1.00  0.00     0.013 C 
HETATM    9  C   LIG     1      18.477  36.459  26.437  1.00  0.00     0.015 C 
HETATM   10  C   LIG     1      17.203  38.573  25.906  1.00  0.00     0.015 C 
ENDBRANCH   5   8
BRANCH   4  11
HETATM   11  O   LIG     1      17.347  34.653  25.083  1.00  0.00    -0.360 OA
HETATM   12  H   LIG     1      18.218  34.203  25.329  1.00  0.00     0.217 HD
ENDBRANCH   4  11
TORSDOF 2
ENDMDL
MODEL 19
REMARK VINA RESULT:      -4.7      2.368      4.389
REMARK  2 active torsions:
REMARK  status: ('A' for Active; 'I' for Inactive)
REMARK    1  A    between atoms: C_4  and  O_5 
REMARK    2  A    between atoms: C_6  and  C_7 
ROOT
HETATM    1  C   LIG     1      17.925  37.076  26.552  1.00  0.00     0.048 C 
HETATM    2  C   LIG     1      17.691  36.999  25.072  1.00  0.00    -0.059 A 
HETATM    3  C   LIG     1      17.294  35.789  24.493  1.00  0.00     0.043 A 
HETATM    4  C   LIG     1      17.058  35.692  23.116  1.00  0.00     0.072 A 
HETATM    5  C   LIG     1      17.278  36.819  22.278  1.00  0.00    -0.022 A 
HETATM    6  C   LIG     1      17.632  38.043  22.885  1.00  0.00     0.011 A 
HETATM    7  C   LIG     1      17.846  38.128  24.262  1.00  0.00     0.007 A 
ENDROOT
BRANCH   5   8
HETATM    8  C   LIG     1      17.070  36.742  20.768  1.00  0.00     0.013 C 
HETATM    9  C   LIG     1      16.205  35.546  20.333  1.00  0.00     0.015 C 
HETATM   10  C   LIG     1      18.420  36.724  20.047  1.00  0.00     0.015 C 
ENDBRANCH   5   8
BRANCH   4  11
HETATM   11  O   LIG     1      16.589  34.468  22.632  1.00  0.00    -0.360 OA
HETATM   12  H   LIG     1      15.628  34.163  22.695  1.00  0.00     0.217 HD
ENDBRANCH   4  11
TORSDOF 2
ENDMDL
MODEL 20
REMARK VINA RESULT:      -4.3      9.556     10.975
REMARK  2 active torsions:
REMARK  status: ('A' for Active; 'I' for Inactive)
REMARK    1  A    between atoms: C_4  and  O_5 
REMARK    2  A    between atoms: C_6  and  C_7 
ROOT
HETATM    1  C   LIG     1      15.339  32.596  16.874  1.00  0.00     0.048 C 
HETATM    2  C   LIG     1      14.685  31.558  16.010  1.00  0.00    -0.059 A 
HETATM    3  C   LIG     1      15.377  31.030  14.915  1.00  0.00     0.043 A 
HETATM    4  C   LIG     1      14.794  30.053  14.098  1.00  0.00     0.072 A 
HETATM    5  C   LIG     1      13.460  29.628  14.342  1.00  0.00    -0.022 A 
HETATM    6  C   LIG     1      12.796  30.136  15.479  1.00  0.00     0.011 A 
HETATM    7  C   LIG     1      13.397  31.096  16.295  1.00  0.00     0.007 A 
ENDROOT
BRANCH   5   8
HETATM    8  C   LIG     1      12.777  28.595  13.451  1.00  0.00     0.013 C 
HETATM    9  C   LIG     1      11.255  28.791  13.348  1.00  0.00     0.015 C 
HETATM   10  C   LIG     1      13.107  27.179  13.933  1.00  0.00     0.015 C 
ENDBRANCH   5   8
BRANCH   4  11
HETATM   11  O   LIG     1      15.583  29.523  13.072  1.00  0.00    -0.360 OA
HETATM   12  H   LIG     1      16.140  30.079  12.440  1.00  0.00     0.217 HD
ENDBRANCH   4  11
TORSDOF 2
ENDMDL
