REMARK  3 active torsions:
REMARK  status: ('A' for Active; 'I' for Inactive)
REMARK    1  A    between atoms: O_1  and  C_2 
REMARK    2  A    between atoms: C_3  and  C_4 
REMARK    3  A    between atoms: C_4  and  O_5 
ROOT
HETATM    1  C   LIG     1       0.030   1.053   0.135  1.00  0.00     0.074 A 
HETATM    2  C   LIG     1       0.527  -0.243  -0.106  1.00  0.00    -0.002 A 
HETATM    3  C   LIG     1      -0.355  -1.254  -0.522  1.00  0.00     0.012 A 
HETATM    4  C   LIG     1      -1.709  -0.971  -0.721  1.00  0.00     0.001 A 
HETATM    5  C   LIG     1      -2.196   0.318  -0.497  1.00  0.00     0.003 A 
HETATM    6  C   LIG     1      -1.331   1.327  -0.068  1.00  0.00     0.037 A 
ENDROOT
BRANCH   2   7
HETATM    7  C   LIG     1       1.979  -0.567   0.134  1.00  0.00     0.205 C 
BRANCH   7   8
HETATM    8  O   LIG     1       2.216  -0.730   1.505  1.00  0.00    -0.396 OA
HETATM    9  H   LIG     1       1.843  -1.616   1.754  1.00  0.00     0.209 HD
ENDBRANCH   7   8
ENDBRANCH   2   7
BRANCH   1  10
HETATM   10  O   LIG     1       0.887   2.062   0.576  1.00  0.00    -0.360 OA
HETATM   11  H   LIG     1       0.552   3.001   0.756  1.00  0.00     0.217 HD
ENDBRANCH   1  10
TORSDOF 3
