MODEL 1
REMARK VINA RESULT:      -6.6      0.000      0.000
REMARK  2 active torsions:
REMARK  status: ('A' for Active; 'I' for Inactive)
REMARK    1  A    between atoms: C_2  and  C_3 
REMARK    2  A    between atoms: C_8  and  O_9 
ROOT
HETATM    1  C   LIG     1      17.127  36.213  24.172  1.00  0.00    -0.025 A 
HETATM    2  C   LIG     1      17.418  34.963  24.746  1.00  0.00     0.010 A 
HETATM    3  C   LIG     1      17.955  34.883  26.034  1.00  0.00     0.001 A 
HETATM    4  C   LIG     1      18.204  36.047  26.762  1.00  0.00     0.003 A 
HETATM    5  C   LIG     1      17.916  37.295  26.206  1.00  0.00     0.037 A 
HETATM    6  C   LIG     1      17.374  37.387  24.914  1.00  0.00     0.071 A 
ENDROOT
BRANCH   1   7
HETATM    7  C   LIG     1      16.549  36.284  22.780  1.00  0.00     0.037 C 
HETATM    8  C   LIG     1      17.013  35.103  21.931  1.00  0.00     0.010 C 
ENDBRANCH   1   7
BRANCH   6   9
HETATM    9  O   LIG     1      17.078  38.636  24.371  1.00  0.00    -0.360 OA
HETATM   10  H   LIG     1      16.852  39.431  24.958  1.00  0.00     0.217 HD
ENDBRANCH   6   9
TORSDOF 2
ENDMDL
MODEL 2
REMARK VINA RESULT:      -6.3      0.925      3.118
REMARK  2 active torsions:
REMARK  status: ('A' for Active; 'I' for Inactive)
REMARK    1  A    between atoms: C_2  and  C_3 
REMARK    2  A    between atoms: C_8  and  O_9 
ROOT
HETATM    1  C   LIG     1      17.421  36.443  24.890  1.00  0.00    -0.025 A 
HETATM    2  C   LIG     1      17.263  35.381  23.982  1.00  0.00     0.010 A 
HETATM    3  C   LIG     1      16.751  35.613  22.703  1.00  0.00     0.001 A 
HETATM    4  C   LIG     1      16.393  36.906  22.317  1.00  0.00     0.003 A 
HETATM    5  C   LIG     1      16.548  37.971  23.207  1.00  0.00     0.037 A 
HETATM    6  C   LIG     1      17.064  37.749  24.493  1.00  0.00     0.071 A 
ENDROOT
BRANCH   1   7
HETATM    7  C   LIG     1      17.974  36.176  26.268  1.00  0.00     0.037 C 
HETATM    8  C   LIG     1      18.418  34.723  26.412  1.00  0.00     0.010 C 
ENDBRANCH   1   7
BRANCH   6   9
HETATM    9  O   LIG     1      17.227  38.819  25.371  1.00  0.00    -0.360 OA
HETATM   10  H   LIG     1      18.141  39.094  25.711  1.00  0.00     0.217 HD
ENDBRANCH   6   9
TORSDOF 2
ENDMDL
MODEL 3
REMARK VINA RESULT:      -6.2      1.622      2.269
REMARK  2 active torsions:
REMARK  status: ('A' for Active; 'I' for Inactive)
REMARK    1  A    between atoms: C_2  and  C_3 
REMARK    2  A    between atoms: C_8  and  O_9 
ROOT
HETATM    1  C   LIG     1      16.970  37.491  23.451  1.00  0.00    -0.025 A 
HETATM    2  C   LIG     1      16.886  36.263  22.773  1.00  0.00     0.010 A 
HETATM    3  C   LIG     1      17.083  35.061  23.459  1.00  0.00     0.001 A 
HETATM    4  C   LIG     1      17.365  35.074  24.826  1.00  0.00     0.003 A 
HETATM    5  C   LIG     1      17.447  36.287  25.512  1.00  0.00     0.037 A 
HETATM    6  C   LIG     1      17.248  37.499  24.834  1.00  0.00     0.071 A 
ENDROOT
BRANCH   1   7
HETATM    7  C   LIG     1      16.756  38.781  22.697  1.00  0.00     0.037 C 
HETATM    8  C   LIG     1      17.861  39.008  21.670  1.00  0.00     0.010 C 
ENDBRANCH   1   7
BRANCH   6   9
HETATM    9  O   LIG     1      17.320  38.705  25.530  1.00  0.00    -0.360 OA
HETATM   10  H   LIG     1      18.208  39.146  25.739  1.00  0.00     0.217 HD
ENDBRANCH   6   9
TORSDOF 2
ENDMDL
MODEL 4
REMARK VINA RESULT:      -6.2      1.748      2.477
REMARK  2 active torsions:
REMARK  status: ('A' for Active; 'I' for Inactive)
REMARK    1  A    between atoms: C_2  and  C_3 
REMARK    2  A    between atoms: C_8  and  O_9 
ROOT
HETATM    1  C   LIG     1      17.220  37.121  24.289  1.00  0.00    -0.025 A 
HETATM    2  C   LIG     1      17.746  37.611  25.497  1.00  0.00     0.010 A 
HETATM    3  C   LIG     1      18.173  36.729  26.492  1.00  0.00     0.001 A 
HETATM    4  C   LIG     1      18.081  35.351  26.293  1.00  0.00     0.003 A 
HETATM    5  C   LIG     1      17.564  34.850  25.096  1.00  0.00     0.037 A 
HETATM    6  C   LIG     1      17.134  35.727  24.088  1.00  0.00     0.071 A 
ENDROOT
BRANCH   1   7
HETATM    7  C   LIG     1      16.761  38.086  23.223  1.00  0.00     0.037 C 
HETATM    8  C   LIG     1      17.948  38.674  22.466  1.00  0.00     0.010 C 
ENDBRANCH   1   7
BRANCH   6   9
HETATM    9  O   LIG     1      16.631  35.219  22.892  1.00  0.00    -0.360 OA
HETATM   10  H   LIG     1      17.242  34.935  22.135  1.00  0.00     0.217 HD
ENDBRANCH   6   9
TORSDOF 2
ENDMDL
MODEL 5
REMARK VINA RESULT:      -6.0      3.021      4.615
REMARK  2 active torsions:
REMARK  status: ('A' for Active; 'I' for Inactive)
REMARK    1  A    between atoms: C_2  and  C_3 
REMARK    2  A    between atoms: C_8  and  O_9 
ROOT
HETATM    1  C   LIG     1      17.568  37.281  21.234  1.00  0.00    -0.025 A 
HETATM    2  C   LIG     1      18.267  36.670  20.179  1.00  0.00     0.010 A 
HETATM    3  C   LIG     1      19.268  37.366  19.496  1.00  0.00     0.001 A 
HETATM    4  C   LIG     1      19.581  38.677  19.860  1.00  0.00     0.003 A 
HETATM    5  C   LIG     1      18.897  39.295  20.908  1.00  0.00     0.037 A 
HETATM    6  C   LIG     1      17.892  38.604  21.602  1.00  0.00     0.071 A 
ENDROOT
BRANCH   1   7
HETATM    7  C   LIG     1      16.488  36.518  21.961  1.00  0.00     0.037 C 
HETATM    8  C   LIG     1      17.022  35.196  22.506  1.00  0.00     0.010 C 
ENDBRANCH   1   7
BRANCH   6   9
HETATM    9  O   LIG     1      17.222  39.224  22.656  1.00  0.00    -0.360 OA
HETATM   10  H   LIG     1      17.704  39.500  23.504  1.00  0.00     0.217 HD
ENDBRANCH   6   9
TORSDOF 2
ENDMDL
MODEL 6
REMARK VINA RESULT:      -5.9      3.442      5.299
REMARK  2 active torsions:
REMARK  status: ('A' for Active; 'I' for Inactive)
REMARK    1  A    between atoms: C_2  and  C_3 
REMARK    2  A    between atoms: C_8  and  O_9 
ROOT
HETATM    1  C   LIG     1      17.797  38.161  21.594  1.00  0.00    -0.025 A 
HETATM    2  C   LIG     1      18.615  39.253  21.254  1.00  0.00     0.010 A 
HETATM    3  C   LIG     1      19.510  39.160  20.185  1.00  0.00     0.001 A 
HETATM    4  C   LIG     1      19.597  37.980  19.444  1.00  0.00     0.003 A 
HETATM    5  C   LIG     1      18.787  36.890  19.768  1.00  0.00     0.037 A 
HETATM    6  C   LIG     1      17.883  36.972  20.838  1.00  0.00     0.071 A 
ENDROOT
BRANCH   1   7
HETATM    7  C   LIG     1      16.836  38.275  22.752  1.00  0.00     0.037 C 
HETATM    8  C   LIG     1      17.564  38.143  24.086  1.00  0.00     0.010 C 
ENDBRANCH   1   7
BRANCH   6   9
HETATM    9  O   LIG     1      17.069  35.883  21.147  1.00  0.00    -0.360 OA
HETATM   10  H   LIG     1      17.444  34.945  21.226  1.00  0.00     0.217 HD
ENDBRANCH   6   9
TORSDOF 2
ENDMDL
MODEL 7
REMARK VINA RESULT:      -5.8      2.850      4.717
REMARK  2 active torsions:
REMARK  status: ('A' for Active; 'I' for Inactive)
REMARK    1  A    between atoms: C_2  and  C_3 
REMARK    2  A    between atoms: C_8  and  O_9 
ROOT
HETATM    1  C   LIG     1      17.586  38.145  21.918  1.00  0.00    -0.025 A 
HETATM    2  C   LIG     1      17.199  36.835  21.585  1.00  0.00     0.010 A 
HETATM    3  C   LIG     1      17.744  36.199  20.466  1.00  0.00     0.001 A 
HETATM    4  C   LIG     1      18.681  36.862  19.672  1.00  0.00     0.003 A 
HETATM    5  C   LIG     1      19.078  38.161  19.994  1.00  0.00     0.037 A 
HETATM    6  C   LIG     1      18.539  38.809  21.116  1.00  0.00     0.071 A 
ENDROOT
BRANCH   1   7
HETATM    7  C   LIG     1      16.988  38.820  23.128  1.00  0.00     0.037 C 
HETATM    8  C   LIG     1      17.181  37.972  24.383  1.00  0.00     0.010 C 
ENDBRANCH   1   7
BRANCH   6   9
HETATM    9  O   LIG     1      18.950  40.101  21.438  1.00  0.00    -0.360 OA
HETATM   10  H   LIG     1      18.767  40.506  22.348  1.00  0.00     0.217 HD
ENDBRANCH   6   9
TORSDOF 2
ENDMDL
MODEL 8
REMARK VINA RESULT:      -5.7      3.786      4.650
REMARK  2 active torsions:
REMARK  status: ('A' for Active; 'I' for Inactive)
REMARK    1  A    between atoms: C_2  and  C_3 
REMARK    2  A    between atoms: C_8  and  O_9 
ROOT
HETATM    1  C   LIG     1      17.428  36.844  21.205  1.00  0.00    -0.025 A 
HETATM    2  C   LIG     1      17.070  37.712  22.252  1.00  0.00     0.010 A 
HETATM    3  C   LIG     1      17.658  38.975  22.355  1.00  0.00     0.001 A 
HETATM    4  C   LIG     1      18.606  39.385  21.416  1.00  0.00     0.003 A 
HETATM    5  C   LIG     1      18.968  38.535  20.369  1.00  0.00     0.037 A 
HETATM    6  C   LIG     1      18.382  37.264  20.254  1.00  0.00     0.071 A 
ENDROOT
BRANCH   1   7
HETATM    7  C   LIG     1      16.786  35.481  21.107  1.00  0.00     0.037 C 
HETATM    8  C   LIG     1      15.265  35.583  21.179  1.00  0.00     0.010 C 
ENDBRANCH   1   7
BRANCH   6   9
HETATM    9  O   LIG     1      18.739  36.426  19.199  1.00  0.00    -0.360 OA
HETATM   10  H   LIG     1      19.641  35.966  19.168  1.00  0.00     0.217 HD
ENDBRANCH   6   9
TORSDOF 2
ENDMDL
MODEL 9
REMARK VINA RESULT:      -5.7      3.021      4.203
REMARK  2 active torsions:
REMARK  status: ('A' for Active; 'I' for Inactive)
REMARK    1  A    between atoms: C_2  and  C_3 
REMARK    2  A    between atoms: C_8  and  O_9 
ROOT
HETATM    1  C   LIG     1      17.929  38.161  21.322  1.00  0.00    -0.025 A 
HETATM    2  C   LIG     1      18.087  36.965  20.601  1.00  0.00     0.010 A 
HETATM    3  C   LIG     1      17.305  35.847  20.904  1.00  0.00     0.001 A 
HETATM    4  C   LIG     1      16.357  35.913  21.927  1.00  0.00     0.003 A 
HETATM    5  C   LIG     1      16.187  37.097  22.649  1.00  0.00     0.037 A 
HETATM    6  C   LIG     1      16.966  38.226  22.351  1.00  0.00     0.071 A 
ENDROOT
BRANCH   1   7
HETATM    7  C   LIG     1      18.783  39.359  20.984  1.00  0.00     0.037 C 
HETATM    8  C   LIG     1      19.861  38.998  19.967  1.00  0.00     0.010 C 
ENDBRANCH   1   7
BRANCH   6   9
HETATM    9  O   LIG     1      16.781  39.407  23.067  1.00  0.00    -0.360 OA
HETATM   10  H   LIG     1      17.423  40.187  22.982  1.00  0.00     0.217 HD
ENDBRANCH   6   9
TORSDOF 2
ENDMDL
MODEL 10
REMARK VINA RESULT:      -5.7      3.490      4.715
REMARK  2 active torsions:
REMARK  status: ('A' for Active; 'I' for Inactive)
REMARK    1  A    between atoms: C_2  and  C_3 
REMARK    2  A    between atoms: C_8  and  O_9 
ROOT
HETATM    1  C   LIG     1      18.244  37.694  20.760  1.00  0.00    -0.025 A 
HETATM    2  C   LIG     1      18.311  38.850  21.556  1.00  0.00     0.010 A 
HETATM    3  C   LIG     1      17.428  39.027  22.624  1.00  0.00     0.001 A 
HETATM    4  C   LIG     1      16.471  38.051  22.910  1.00  0.00     0.003 A 
HETATM    5  C   LIG     1      16.396  36.895  22.130  1.00  0.00     0.037 A 
HETATM    6  C   LIG     1      17.280  36.706  21.056  1.00  0.00     0.071 A 
ENDROOT
BRANCH   1   7
HETATM    7  C   LIG     1      19.203  37.518  19.608  1.00  0.00     0.037 C 
HETATM    8  C   LIG     1      20.183  38.684  19.526  1.00  0.00     0.010 C 
ENDBRANCH   1   7
BRANCH   6   9
HETATM    9  O   LIG     1      17.206  35.544  20.291  1.00  0.00    -0.360 OA
HETATM   10  H   LIG     1      16.884  35.559  19.330  1.00  0.00     0.217 HD
ENDBRANCH   6   9
TORSDOF 2
ENDMDL
MODEL 11
REMARK VINA RESULT:      -5.6      9.424     11.067
REMARK  2 active torsions:
REMARK  status: ('A' for Active; 'I' for Inactive)
REMARK    1  A    between atoms: C_2  and  C_3 
REMARK    2  A    between atoms: C_8  and  O_9 
ROOT
HETATM    1  C   LIG     1      14.307  30.710  15.220  1.00  0.00    -0.025 A 
HETATM    2  C   LIG     1      15.440  31.497  14.952  1.00  0.00     0.010 A 
HETATM    3  C   LIG     1      15.759  32.582  15.773  1.00  0.00     0.001 A 
HETATM    4  C   LIG     1      14.952  32.891  16.870  1.00  0.00     0.003 A 
HETATM    5  C   LIG     1      13.825  32.115  17.150  1.00  0.00     0.037 A 
HETATM    6  C   LIG     1      13.497  31.022  16.333  1.00  0.00     0.071 A 
ENDROOT
BRANCH   1   7
HETATM    7  C   LIG     1      13.974  29.543  14.324  1.00  0.00     0.037 C 
HETATM    8  C   LIG     1      15.238  28.814  13.878  1.00  0.00     0.010 C 
ENDBRANCH   1   7
BRANCH   6   9
HETATM    9  O   LIG     1      12.377  30.245  16.627  1.00  0.00    -0.360 OA
HETATM   10  H   LIG     1      11.788  29.864  15.896  1.00  0.00     0.217 HD
ENDBRANCH   6   9
TORSDOF 2
ENDMDL
MODEL 12
REMARK VINA RESULT:      -5.4      9.804     11.305
REMARK  2 active torsions:
REMARK  status: ('A' for Active; 'I' for Inactive)
REMARK    1  A    between atoms: C_2  and  C_3 
REMARK    2  A    between atoms: C_8  and  O_9 
ROOT
HETATM    1  C   LIG     1      14.803  30.657  14.724  1.00  0.00    -0.025 A 
HETATM    2  C   LIG     1      13.545  30.349  15.272  1.00  0.00     0.010 A 
HETATM    3  C   LIG     1      13.061  31.057  16.374  1.00  0.00     0.001 A 
HETATM    4  C   LIG     1      13.825  32.080  16.939  1.00  0.00     0.003 A 
HETATM    5  C   LIG     1      15.073  32.400  16.402  1.00  0.00     0.037 A 
HETATM    6  C   LIG     1      15.568  31.696  15.293  1.00  0.00     0.071 A 
ENDROOT
BRANCH   1   7
HETATM    7  C   LIG     1      15.313  29.881  13.534  1.00  0.00     0.037 C 
HETATM    8  C   LIG     1      15.245  28.378  13.786  1.00  0.00     0.010 C 
ENDBRANCH   1   7
BRANCH   6   9
HETATM    9  O   LIG     1      16.811  32.029  14.756  1.00  0.00    -0.360 OA
HETATM   10  H   LIG     1      17.565  31.355  14.702  1.00  0.00     0.217 HD
ENDBRANCH   6   9
TORSDOF 2
ENDMDL
MODEL 13
REMARK VINA RESULT:      -5.4      8.617     11.270
REMARK  2 active torsions:
REMARK  status: ('A' for Active; 'I' for Inactive)
REMARK    1  A    between atoms: C_2  and  C_3 
REMARK    2  A    between atoms: C_8  and  O_9 
ROOT
HETATM    1  C   LIG     1      14.341  31.632  16.175  1.00  0.00    -0.025 A 
HETATM    2  C   LIG     1      15.460  31.901  15.367  1.00  0.00     0.010 A 
HETATM    3  C   LIG     1      15.719  31.126  14.234  1.00  0.00     0.001 A 
HETATM    4  C   LIG     1      14.863  30.077  13.894  1.00  0.00     0.003 A 
HETATM    5  C   LIG     1      13.746  29.801  14.684  1.00  0.00     0.037 A 
HETATM    6  C   LIG     1      13.475  30.575  15.824  1.00  0.00     0.071 A 
ENDROOT
BRANCH   1   7
HETATM    7  C   LIG     1      14.076  32.476  17.397  1.00  0.00     0.037 C 
HETATM    8  C   LIG     1      14.779  31.904  18.624  1.00  0.00     0.010 C 
ENDBRANCH   1   7
BRANCH   6   9
HETATM    9  O   LIG     1      12.351  30.300  16.600  1.00  0.00    -0.360 OA
HETATM   10  H   LIG     1      12.240  30.686  17.531  1.00  0.00     0.217 HD
ENDBRANCH   6   9
TORSDOF 2
ENDMDL
MODEL 14
REMARK VINA RESULT:      -5.2      9.299     10.478
REMARK  2 active torsions:
REMARK  status: ('A' for Active; 'I' for Inactive)
REMARK    1  A    between atoms: C_2  and  C_3 
REMARK    2  A    between atoms: C_8  and  O_9 
ROOT
HETATM    1  C   LIG     1      15.626  32.098  15.444  1.00  0.00    -0.025 A 
HETATM    2  C   LIG     1      15.093  30.993  14.756  1.00  0.00     0.010 A 
HETATM    3  C   LIG     1      13.903  30.400  15.184  1.00  0.00     0.001 A 
HETATM    4  C   LIG     1      13.232  30.903  16.300  1.00  0.00     0.003 A 
HETATM    5  C   LIG     1      13.747  32.002  16.990  1.00  0.00     0.037 A 
HETATM    6  C   LIG     1      14.941  32.607  16.568  1.00  0.00     0.071 A 
ENDROOT
BRANCH   1   7
HETATM    7  C   LIG     1      16.913  32.727  14.971  1.00  0.00     0.037 C 
HETATM    8  C   LIG     1      16.925  32.882  13.453  1.00  0.00     0.010 C 
ENDBRANCH   1   7
BRANCH   6   9
HETATM    9  O   LIG     1      15.442  33.712  17.255  1.00  0.00    -0.360 OA
HETATM   10  H   LIG     1      14.928  34.583  17.307  1.00  0.00     0.217 HD
ENDBRANCH   6   9
TORSDOF 2
ENDMDL
MODEL 15
REMARK VINA RESULT:      -5.2      7.920     10.577
REMARK  2 active torsions:
REMARK  status: ('A' for Active; 'I' for Inactive)
REMARK    1  A    between atoms: C_2  and  C_3 
REMARK    2  A    between atoms: C_8  and  O_9 
ROOT
HETATM    1  C   LIG     1      14.793  32.055  16.519  1.00  0.00    -0.025 A 
HETATM    2  C   LIG     1      13.690  31.191  16.408  1.00  0.00     0.010 A 
HETATM    3  C   LIG     1      13.562  30.346  15.303  1.00  0.00     0.001 A 
HETATM    4  C   LIG     1      14.532  30.354  14.300  1.00  0.00     0.003 A 
HETATM    5  C   LIG     1      15.635  31.204  14.399  1.00  0.00     0.037 A 
HETATM    6  C   LIG     1      15.776  32.055  15.506  1.00  0.00     0.071 A 
ENDROOT
BRANCH   1   7
HETATM    7  C   LIG     1      14.918  32.964  17.718  1.00  0.00     0.037 C 
HETATM    8  C   LIG     1      14.991  32.159  19.013  1.00  0.00     0.010 C 
ENDBRANCH   1   7
BRANCH   6   9
HETATM    9  O   LIG     1      16.886  32.892  15.604  1.00  0.00    -0.360 OA
HETATM   10  H   LIG     1      17.316  33.303  14.784  1.00  0.00     0.217 HD
ENDBRANCH   6   9
TORSDOF 2
ENDMDL
MODEL 16
REMARK VINA RESULT:      -5.0     10.348     11.388
REMARK  2 active torsions:
REMARK  status: ('A' for Active; 'I' for Inactive)
REMARK    1  A    between atoms: C_2  and  C_3 
REMARK    2  A    between atoms: C_8  and  O_9 
ROOT
HETATM    1  C   LIG     1      15.365  31.668  14.969  1.00  0.00    -0.025 A 
HETATM    2  C   LIG     1      14.986  32.267  16.182  1.00  0.00     0.010 A 
HETATM    3  C   LIG     1      13.865  31.808  16.878  1.00  0.00     0.001 A 
HETATM    4  C   LIG     1      13.112  30.747  16.371  1.00  0.00     0.003 A 
HETATM    5  C   LIG     1      13.480  30.140  15.169  1.00  0.00     0.037 A 
HETATM    6  C   LIG     1      14.606  30.591  14.463  1.00  0.00     0.071 A 
ENDROOT
BRANCH   1   7
HETATM    7  C   LIG     1      16.578  32.175  14.227  1.00  0.00     0.037 C 
HETATM    8  C   LIG     1      17.225  33.343  14.966  1.00  0.00     0.010 C 
ENDBRANCH   1   7
BRANCH   6   9
HETATM    9  O   LIG     1      14.973  29.972  13.269  1.00  0.00    -0.360 OA
HETATM   10  H   LIG     1      14.286  29.714  12.570  1.00  0.00     0.217 HD
ENDBRANCH   6   9
TORSDOF 2
ENDMDL
MODEL 17
REMARK VINA RESULT:      -4.9      9.905     11.092
REMARK  2 active torsions:
REMARK  status: ('A' for Active; 'I' for Inactive)
REMARK    1  A    between atoms: C_2  and  C_3 
REMARK    2  A    between atoms: C_8  and  O_9 
ROOT
HETATM    1  C   LIG     1      14.710  31.368  15.717  1.00  0.00    -0.025 A 
HETATM    2  C   LIG     1      14.545  30.483  14.637  1.00  0.00     0.010 A 
HETATM    3  C   LIG     1      15.299  30.641  13.471  1.00  0.00     0.001 A 
HETATM    4  C   LIG     1      16.225  31.681  13.372  1.00  0.00     0.003 A 
HETATM    5  C   LIG     1      16.402  32.565  14.438  1.00  0.00     0.037 A 
HETATM    6  C   LIG     1      15.652  32.414  15.615  1.00  0.00     0.071 A 
ENDROOT
BRANCH   1   7
HETATM    7  C   LIG     1      13.888  31.186  16.969  1.00  0.00     0.037 C 
HETATM    8  C   LIG     1      12.501  31.802  16.812  1.00  0.00     0.010 C 
ENDBRANCH   1   7
BRANCH   6   9
HETATM    9  O   LIG     1      15.843  33.293  16.680  1.00  0.00    -0.360 OA
HETATM   10  H   LIG     1      15.401  34.204  16.703  1.00  0.00     0.217 HD
ENDBRANCH   6   9
TORSDOF 2
ENDMDL
MODEL 18
REMARK VINA RESULT:      -4.8      1.856      4.036
REMARK  2 active torsions:
REMARK  status: ('A' for Active; 'I' for Inactive)
REMARK    1  A    between atoms: C_2  and  C_3 
REMARK    2  A    between atoms: C_8  and  O_9 
ROOT
HETATM    1  C   LIG     1      17.521  36.881  24.038  1.00  0.00    -0.025 A 
HETATM    2  C   LIG     1      17.520  37.820  22.992  1.00  0.00     0.010 A 
HETATM    3  C   LIG     1      17.171  37.435  21.695  1.00  0.00     0.001 A 
HETATM    4  C   LIG     1      16.819  36.110  21.429  1.00  0.00     0.003 A 
HETATM    5  C   LIG     1      16.811  35.168  22.459  1.00  0.00     0.037 A 
HETATM    6  C   LIG     1      17.157  35.545  23.766  1.00  0.00     0.071 A 
ENDROOT
BRANCH   1   7
HETATM    7  C   LIG     1      17.901  37.311  25.433  1.00  0.00     0.037 C 
HETATM    8  C   LIG     1      17.242  38.638  25.798  1.00  0.00     0.010 C 
ENDBRANCH   1   7
BRANCH   6   9
HETATM    9  O   LIG     1      17.135  34.600  24.791  1.00  0.00    -0.360 OA
HETATM   10  H   LIG     1      16.981  34.867  25.757  1.00  0.00     0.217 HD
ENDBRANCH   6   9
TORSDOF 2
ENDMDL
MODEL 19
REMARK VINA RESULT:      -4.8      9.327     11.571
REMARK  2 active torsions:
REMARK  status: ('A' for Active; 'I' for Inactive)
REMARK    1  A    between atoms: C_2  and  C_3 
REMARK    2  A    between atoms: C_8  and  O_9 
ROOT
HETATM    1  C   LIG     1      14.598  31.310  15.711  1.00  0.00    -0.025 A 
HETATM    2  C   LIG     1      15.557  32.337  15.687  1.00  0.00     0.010 A 
HETATM    3  C   LIG     1      16.355  32.535  14.557  1.00  0.00     0.001 A 
HETATM    4  C   LIG     1      16.203  31.711  13.441  1.00  0.00     0.003 A 
HETATM    5  C   LIG     1      15.252  30.688  13.449  1.00  0.00     0.037 A 
HETATM    6  C   LIG     1      14.443  30.483  14.578  1.00  0.00     0.071 A 
ENDROOT
BRANCH   1   7
HETATM    7  C   LIG     1      13.744  31.107  16.939  1.00  0.00     0.037 C 
HETATM    8  C   LIG     1      14.341  31.822  18.148  1.00  0.00     0.010 C 
ENDBRANCH   1   7
BRANCH   6   9
HETATM    9  O   LIG     1      13.488  29.468  14.573  1.00  0.00    -0.360 OA
HETATM   10  H   LIG     1      13.471  28.751  15.288  1.00  0.00     0.217 HD
ENDBRANCH   6   9
TORSDOF 2
ENDMDL
MODEL 20
REMARK VINA RESULT:      -4.7      3.684      4.782
REMARK  2 active torsions:
REMARK  status: ('A' for Active; 'I' for Inactive)
REMARK    1  A    between atoms: C_2  and  C_3 
REMARK    2  A    between atoms: C_8  and  O_9 
ROOT
HETATM    1  C   LIG     1      17.775  37.710  21.253  1.00  0.00    -0.025 A 
HETATM    2  C   LIG     1      16.803  37.837  22.260  1.00  0.00     0.010 A 
HETATM    3  C   LIG     1      15.836  36.844  22.439  1.00  0.00     0.001 A 
HETATM    4  C   LIG     1      15.832  35.715  21.618  1.00  0.00     0.003 A 
HETATM    5  C   LIG     1      16.795  35.575  20.616  1.00  0.00     0.037 A 
HETATM    6  C   LIG     1      17.771  36.565  20.429  1.00  0.00     0.071 A 
ENDROOT
BRANCH   1   7
HETATM    7  C   LIG     1      18.812  38.792  21.070  1.00  0.00     0.037 C 
HETATM    8  C   LIG     1      19.224  39.392  22.412  1.00  0.00     0.010 C 
ENDBRANCH   1   7
BRANCH   6   9
HETATM    9  O   LIG     1      18.736  36.411  19.435  1.00  0.00    -0.360 OA
HETATM   10  H   LIG     1      19.648  36.847  19.507  1.00  0.00     0.217 HD
ENDBRANCH   6   9
TORSDOF 2
ENDMDL
