REMARK  2 active torsions:
REMARK  status: ('A' for Active; 'I' for Inactive)
REMARK    1  A    between atoms: C_2  and  C_3 
REMARK    2  A    between atoms: C_4  and  O_5 
ROOT
HETATM    1  C   LIG     1       0.705  -0.330   0.111  1.00  0.00     0.035 A 
HETATM    2  C   LIG     1       0.284   0.984  -0.226  1.00  0.00     0.078 A 
HETATM    3  C   LIG     1      -1.082   1.252  -0.384  1.00  0.00     0.037 A 
HETATM    4  C   LIG     1      -2.033   0.254  -0.169  1.00  0.00     0.003 A 
HETATM    5  C   LIG     1      -1.628  -1.026   0.207  1.00  0.00     0.001 A 
HETATM    6  C   LIG     1      -0.269  -1.317   0.347  1.00  0.00     0.017 A 
ENDROOT
BRANCH   1   7
HETATM    7  C   LIG     1       2.123  -0.735   0.200  1.00  0.00     0.272 C 
HETATM    8  O   LIG     1       3.024  -0.145  -0.451  1.00  0.00    -0.301 OA
ENDBRANCH   1   7
BRANCH   2   9
HETATM    9  O   LIG     1       1.173   2.050  -0.378  1.00  0.00    -0.360 OA
HETATM   10  H   LIG     1       2.146   2.012  -0.106  1.00  0.00     0.217 HD
ENDBRANCH   2   9
TORSDOF 2
