MODEL 1
REMARK VINA RESULT:      -6.0      0.000      0.000
REMARK  2 active torsions:
REMARK  status: ('A' for Active; 'I' for Inactive)
REMARK    1  A    between atoms: O_2  and  C_3 
REMARK    2  A    between atoms: C_8  and  O_9 
ROOT
HETATM    1  C   LIG     1      17.016  36.763  24.434  1.00  0.00     0.101 A 
HETATM    2  C   LIG     1      17.191  35.363  24.447  1.00  0.00     0.039 A 
HETATM    3  C   LIG     1      17.840  34.742  25.516  1.00  0.00     0.003 A 
HETATM    4  C   LIG     1      18.321  35.505  26.582  1.00  0.00     0.003 A 
HETATM    5  C   LIG     1      18.154  36.890  26.581  1.00  0.00     0.039 A 
HETATM    6  C   LIG     1      17.505  37.524  25.513  1.00  0.00     0.099 A 
ENDROOT
BRANCH   1   7
HETATM    7  O   LIG     1      16.369  37.422  23.376  1.00  0.00    -0.353 OA
HETATM    8  C   LIG     1      16.966  37.699  22.114  1.00  0.00     0.210 C 
ENDBRANCH   1   7
BRANCH   6   9
HETATM    9  O   LIG     1      17.356  38.910  25.544  1.00  0.00    -0.358 OA
HETATM   10  H   LIG     1      17.286  39.426  26.414  1.00  0.00     0.217 HD
ENDBRANCH   6   9
TORSDOF 2
ENDMDL
MODEL 2
REMARK VINA RESULT:      -5.8      0.991      2.246
REMARK  2 active torsions:
REMARK  status: ('A' for Active; 'I' for Inactive)
REMARK    1  A    between atoms: O_2  and  C_3 
REMARK    2  A    between atoms: C_8  and  O_9 
ROOT
HETATM    1  C   LIG     1      17.133  37.234  24.606  1.00  0.00     0.101 A 
HETATM    2  C   LIG     1      17.703  37.519  25.864  1.00  0.00     0.039 A 
HETATM    3  C   LIG     1      18.205  36.488  26.663  1.00  0.00     0.003 A 
HETATM    4  C   LIG     1      18.146  35.166  26.218  1.00  0.00     0.003 A 
HETATM    5  C   LIG     1      17.585  34.871  24.975  1.00  0.00     0.039 A 
HETATM    6  C   LIG     1      17.078  35.897  24.166  1.00  0.00     0.099 A 
ENDROOT
BRANCH   1   7
HETATM    7  O   LIG     1      16.619  38.243  23.777  1.00  0.00    -0.353 OA
HETATM    8  C   LIG     1      17.378  38.948  22.800  1.00  0.00     0.210 C 
ENDBRANCH   1   7
BRANCH   6   9
HETATM    9  O   LIG     1      16.524  35.567  22.929  1.00  0.00    -0.358 OA
HETATM   10  H   LIG     1      17.073  35.557  22.078  1.00  0.00     0.217 HD
ENDBRANCH   6   9
TORSDOF 2
ENDMDL
MODEL 3
REMARK VINA RESULT:      -5.4      2.580      5.320
REMARK  2 active torsions:
REMARK  status: ('A' for Active; 'I' for Inactive)
REMARK    1  A    between atoms: O_2  and  C_3 
REMARK    2  A    between atoms: C_8  and  O_9 
ROOT
HETATM    1  C   LIG     1      17.622  37.720  21.472  1.00  0.00     0.101 A 
HETATM    2  C   LIG     1      18.368  38.916  21.493  1.00  0.00     0.039 A 
HETATM    3  C   LIG     1      19.374  39.139  20.549  1.00  0.00     0.003 A 
HETATM    4  C   LIG     1      19.647  38.176  19.576  1.00  0.00     0.003 A 
HETATM    5  C   LIG     1      18.914  36.988  19.544  1.00  0.00     0.039 A 
HETATM    6  C   LIG     1      17.904  36.754  20.486  1.00  0.00     0.099 A 
ENDROOT
BRANCH   1   7
HETATM    7  O   LIG     1      16.604  37.462  22.404  1.00  0.00    -0.353 OA
HETATM    8  C   LIG     1      16.771  37.524  23.816  1.00  0.00     0.210 C 
ENDBRANCH   1   7
BRANCH   6   9
HETATM    9  O   LIG     1      17.192  35.557  20.425  1.00  0.00    -0.358 OA
HETATM   10  H   LIG     1      17.057  35.053  19.557  1.00  0.00     0.217 HD
ENDBRANCH   6   9
TORSDOF 2
ENDMDL
MODEL 4
REMARK VINA RESULT:      -5.4      2.278      4.269
REMARK  2 active torsions:
REMARK  status: ('A' for Active; 'I' for Inactive)
REMARK    1  A    between atoms: O_2  and  C_3 
REMARK    2  A    between atoms: C_8  and  O_9 
ROOT
HETATM    1  C   LIG     1      17.424  38.033  22.450  1.00  0.00     0.101 A 
HETATM    2  C   LIG     1      16.971  36.730  22.157  1.00  0.00     0.039 A 
HETATM    3  C   LIG     1      17.386  36.083  20.990  1.00  0.00     0.003 A 
HETATM    4  C   LIG     1      18.255  36.724  20.106  1.00  0.00     0.003 A 
HETATM    5  C   LIG     1      18.710  38.013  20.385  1.00  0.00     0.039 A 
HETATM    6  C   LIG     1      18.300  38.672  21.551  1.00  0.00     0.099 A 
ENDROOT
BRANCH   1   7
HETATM    7  O   LIG     1      17.027  38.714  23.612  1.00  0.00    -0.353 OA
HETATM    8  C   LIG     1      17.244  38.241  24.937  1.00  0.00     0.210 C 
ENDBRANCH   1   7
BRANCH   6   9
HETATM    9  O   LIG     1      18.774  39.960  21.799  1.00  0.00    -0.358 OA
HETATM   10  H   LIG     1      19.595  40.331  21.335  1.00  0.00     0.217 HD
ENDBRANCH   6   9
TORSDOF 2
ENDMDL
MODEL 5
REMARK VINA RESULT:      -5.3      3.089      4.804
REMARK  2 active torsions:
REMARK  status: ('A' for Active; 'I' for Inactive)
REMARK    1  A    between atoms: O_2  and  C_3 
REMARK    2  A    between atoms: C_8  and  O_9 
ROOT
HETATM    1  C   LIG     1      17.613  37.265  21.259  1.00  0.00     0.101 A 
HETATM    2  C   LIG     1      18.324  36.688  20.187  1.00  0.00     0.039 A 
HETATM    3  C   LIG     1      19.272  37.436  19.484  1.00  0.00     0.003 A 
HETATM    4  C   LIG     1      19.522  38.762  19.840  1.00  0.00     0.003 A 
HETATM    5  C   LIG     1      18.825  39.344  20.900  1.00  0.00     0.039 A 
HETATM    6  C   LIG     1      17.872  38.604  21.611  1.00  0.00     0.099 A 
ENDROOT
BRANCH   1   7
HETATM    7  O   LIG     1      16.653  36.545  21.988  1.00  0.00    -0.353 OA
HETATM    8  C   LIG     1      16.865  35.250  22.540  1.00  0.00     0.210 C 
ENDBRANCH   1   7
BRANCH   6   9
HETATM    9  O   LIG     1      17.193  39.217  22.665  1.00  0.00    -0.358 OA
HETATM   10  H   LIG     1      16.575  40.007  22.521  1.00  0.00     0.217 HD
ENDBRANCH   6   9
TORSDOF 2
ENDMDL
MODEL 6
REMARK VINA RESULT:      -5.3      1.150      1.271
REMARK  2 active torsions:
REMARK  status: ('A' for Active; 'I' for Inactive)
REMARK    1  A    between atoms: O_2  and  C_3 
REMARK    2  A    between atoms: C_8  and  O_9 
ROOT
HETATM    1  C   LIG     1      16.859  36.433  23.422  1.00  0.00     0.101 A 
HETATM    2  C   LIG     1      17.168  35.114  23.814  1.00  0.00     0.039 A 
HETATM    3  C   LIG     1      17.571  34.842  25.123  1.00  0.00     0.003 A 
HETATM    4  C   LIG     1      17.669  35.876  26.055  1.00  0.00     0.003 A 
HETATM    5  C   LIG     1      17.366  37.186  25.680  1.00  0.00     0.039 A 
HETATM    6  C   LIG     1      16.962  37.471  24.370  1.00  0.00     0.099 A 
ENDROOT
BRANCH   1   7
HETATM    7  O   LIG     1      16.451  36.745  22.115  1.00  0.00    -0.353 OA
HETATM    8  C   LIG     1      16.956  36.116  20.942  1.00  0.00     0.210 C 
ENDBRANCH   1   7
BRANCH   6   9
HETATM    9  O   LIG     1      16.666  38.790  24.029  1.00  0.00    -0.358 OA
HETATM   10  H   LIG     1      16.356  39.051  23.100  1.00  0.00     0.217 HD
ENDBRANCH   6   9
TORSDOF 2
ENDMDL
MODEL 7
REMARK VINA RESULT:      -5.2      1.394      3.293
REMARK  2 active torsions:
REMARK  status: ('A' for Active; 'I' for Inactive)
REMARK    1  A    between atoms: O_2  and  C_3 
REMARK    2  A    between atoms: C_8  and  O_9 
ROOT
HETATM    1  C   LIG     1      17.133  36.448  24.308  1.00  0.00     0.101 A 
HETATM    2  C   LIG     1      17.160  35.198  23.657  1.00  0.00     0.039 A 
HETATM    3  C   LIG     1      17.025  35.121  22.268  1.00  0.00     0.003 A 
HETATM    4  C   LIG     1      16.861  36.286  21.516  1.00  0.00     0.003 A 
HETATM    5  C   LIG     1      16.832  37.529  22.149  1.00  0.00     0.039 A 
HETATM    6  C   LIG     1      16.967  37.618  23.540  1.00  0.00     0.099 A 
ENDROOT
BRANCH   1   7
HETATM    7  O   LIG     1      17.265  36.565  25.701  1.00  0.00    -0.353 OA
HETATM    8  C   LIG     1      18.509  36.578  26.394  1.00  0.00     0.210 C 
ENDBRANCH   1   7
BRANCH   6   9
HETATM    9  O   LIG     1      16.934  38.876  24.140  1.00  0.00    -0.358 OA
HETATM   10  H   LIG     1      16.378  39.065  24.966  1.00  0.00     0.217 HD
ENDBRANCH   6   9
TORSDOF 2
ENDMDL
MODEL 8
REMARK VINA RESULT:      -5.1      3.921      5.059
REMARK  2 active torsions:
REMARK  status: ('A' for Active; 'I' for Inactive)
REMARK    1  A    between atoms: O_2  and  C_3 
REMARK    2  A    between atoms: C_8  and  O_9 
ROOT
HETATM    1  C   LIG     1      17.505  36.797  21.126  1.00  0.00     0.101 A 
HETATM    2  C   LIG     1      17.029  37.634  22.158  1.00  0.00     0.039 A 
HETATM    3  C   LIG     1      17.542  38.924  22.315  1.00  0.00     0.003 A 
HETATM    4  C   LIG     1      18.530  39.395  21.448  1.00  0.00     0.003 A 
HETATM    5  C   LIG     1      19.008  38.577  20.423  1.00  0.00     0.039 A 
HETATM    6  C   LIG     1      18.502  37.281  20.257  1.00  0.00     0.099 A 
ENDROOT
BRANCH   1   7
HETATM    7  O   LIG     1      17.014  35.495  20.939  1.00  0.00    -0.353 OA
HETATM    8  C   LIG     1      15.703  35.187  20.478  1.00  0.00     0.210 C 
ENDBRANCH   1   7
BRANCH   6   9
HETATM    9  O   LIG     1      19.002  36.491  19.223  1.00  0.00    -0.358 OA
HETATM   10  H   LIG     1      19.754  35.827  19.367  1.00  0.00     0.217 HD
ENDBRANCH   6   9
TORSDOF 2
ENDMDL
MODEL 9
REMARK VINA RESULT:      -5.0      9.593     11.457
REMARK  2 active torsions:
REMARK  status: ('A' for Active; 'I' for Inactive)
REMARK    1  A    between atoms: O_2  and  C_3 
REMARK    2  A    between atoms: C_8  and  O_9 
ROOT
HETATM    1  C   LIG     1      14.377  31.682  16.349  1.00  0.00     0.101 A 
HETATM    2  C   LIG     1      15.484  32.007  15.538  1.00  0.00     0.039 A 
HETATM    3  C   LIG     1      15.712  31.318  14.344  1.00  0.00     0.003 A 
HETATM    4  C   LIG     1      14.842  30.302  13.945  1.00  0.00     0.003 A 
HETATM    5  C   LIG     1      13.743  29.972  14.739  1.00  0.00     0.039 A 
HETATM    6  C   LIG     1      13.505  30.655  15.938  1.00  0.00     0.099 A 
ENDROOT
BRANCH   1   7
HETATM    7  O   LIG     1      14.117  32.352  17.555  1.00  0.00    -0.353 OA
HETATM    8  C   LIG     1      14.892  32.207  18.741  1.00  0.00     0.210 C 
ENDBRANCH   1   7
BRANCH   6   9
HETATM    9  O   LIG     1      12.397  30.300  16.707  1.00  0.00    -0.358 OA
HETATM   10  H   LIG     1      11.770  30.991  17.101  1.00  0.00     0.217 HD
ENDBRANCH   6   9
TORSDOF 2
ENDMDL
MODEL 10
REMARK VINA RESULT:      -5.0      9.168     10.373
REMARK  2 active torsions:
REMARK  status: ('A' for Active; 'I' for Inactive)
REMARK    1  A    between atoms: O_2  and  C_3 
REMARK    2  A    between atoms: C_8  and  O_9 
ROOT
HETATM    1  C   LIG     1      15.721  32.478  15.880  1.00  0.00     0.101 A 
HETATM    2  C   LIG     1      15.407  31.443  14.975  1.00  0.00     0.039 A 
HETATM    3  C   LIG     1      14.276  30.648  15.174  1.00  0.00     0.003 A 
HETATM    4  C   LIG     1      13.447  30.874  16.273  1.00  0.00     0.003 A 
HETATM    5  C   LIG     1      13.746  31.894  17.177  1.00  0.00     0.039 A 
HETATM    6  C   LIG     1      14.878  32.698  16.987  1.00  0.00     0.099 A 
ENDROOT
BRANCH   1   7
HETATM    7  O   LIG     1      16.849  33.297  15.713  1.00  0.00    -0.353 OA
HETATM    8  C   LIG     1      17.699  33.274  14.571  1.00  0.00     0.210 C 
ENDBRANCH   1   7
BRANCH   6   9
HETATM    9  O   LIG     1      15.147  33.709  17.909  1.00  0.00    -0.358 OA
HETATM   10  H   LIG     1      15.178  33.535  18.906  1.00  0.00     0.217 HD
ENDBRANCH   6   9
TORSDOF 2
ENDMDL
MODEL 11
REMARK VINA RESULT:      -4.9     10.632     11.824
REMARK  2 active torsions:
REMARK  status: ('A' for Active; 'I' for Inactive)
REMARK    1  A    between atoms: O_2  and  C_3 
REMARK    2  A    between atoms: C_8  and  O_9 
ROOT
HETATM    1  C   LIG     1      15.525  31.594  15.000  1.00  0.00     0.101 A 
HETATM    2  C   LIG     1      15.086  32.220  16.185  1.00  0.00     0.039 A 
HETATM    3  C   LIG     1      13.892  31.824  16.794  1.00  0.00     0.003 A 
HETATM    4  C   LIG     1      13.125  30.803  16.231  1.00  0.00     0.003 A 
HETATM    5  C   LIG     1      13.549  30.175  15.059  1.00  0.00     0.039 A 
HETATM    6  C   LIG     1      14.743  30.564  14.440  1.00  0.00     0.099 A 
ENDROOT
BRANCH   1   7
HETATM    7  O   LIG     1      16.718  31.965  14.360  1.00  0.00    -0.353 OA
HETATM    8  C   LIG     1      17.535  33.062  14.754  1.00  0.00     0.210 C 
ENDBRANCH   1   7
BRANCH   6   9
HETATM    9  O   LIG     1      15.137  29.916  13.270  1.00  0.00    -0.358 OA
HETATM   10  H   LIG     1      15.776  30.339  12.608  1.00  0.00     0.217 HD
ENDBRANCH   6   9
TORSDOF 2
ENDMDL
MODEL 12
REMARK VINA RESULT:      -4.9      8.581     10.390
REMARK  2 active torsions:
REMARK  status: ('A' for Active; 'I' for Inactive)
REMARK    1  A    between atoms: O_2  and  C_3 
REMARK    2  A    between atoms: C_8  and  O_9 
ROOT
HETATM    1  C   LIG     1      14.948  32.334  17.020  1.00  0.00     0.101 A 
HETATM    2  C   LIG     1      13.791  31.529  17.064  1.00  0.00     0.039 A 
HETATM    3  C   LIG     1      13.477  30.684  15.996  1.00  0.00     0.003 A 
HETATM    4  C   LIG     1      14.309  30.633  14.876  1.00  0.00     0.003 A 
HETATM    5  C   LIG     1      15.457  31.424  14.822  1.00  0.00     0.039 A 
HETATM    6  C   LIG     1      15.782  32.275  15.886  1.00  0.00     0.099 A 
ENDROOT
BRANCH   1   7
HETATM    7  O   LIG     1      15.295  33.195  18.074  1.00  0.00    -0.353 OA
HETATM    8  C   LIG     1      15.357  32.809  19.443  1.00  0.00     0.210 C 
ENDBRANCH   1   7
BRANCH   6   9
HETATM    9  O   LIG     1      16.936  33.052  15.799  1.00  0.00    -0.358 OA
HETATM   10  H   LIG     1      17.711  32.801  15.196  1.00  0.00     0.217 HD
ENDBRANCH   6   9
TORSDOF 2
ENDMDL
MODEL 13
REMARK VINA RESULT:      -4.9      4.299      5.608
REMARK  2 active torsions:
REMARK  status: ('A' for Active; 'I' for Inactive)
REMARK    1  A    between atoms: O_2  and  C_3 
REMARK    2  A    between atoms: C_8  and  O_9 
ROOT
HETATM    1  C   LIG     1      18.882  38.575  19.948  1.00  0.00     0.101 A 
HETATM    2  C   LIG     1      18.759  39.486  21.017  1.00  0.00     0.039 A 
HETATM    3  C   LIG     1      18.076  39.124  22.181  1.00  0.00     0.003 A 
HETATM    4  C   LIG     1      17.508  37.853  22.292  1.00  0.00     0.003 A 
HETATM    5  C   LIG     1      17.623  36.942  21.241  1.00  0.00     0.039 A 
HETATM    6  C   LIG     1      18.306  37.295  20.070  1.00  0.00     0.099 A 
ENDROOT
BRANCH   1   7
HETATM    7  O   LIG     1      19.561  38.904  18.764  1.00  0.00    -0.353 OA
HETATM    8  C   LIG     1      18.936  39.421  17.594  1.00  0.00     0.210 C 
ENDBRANCH   1   7
BRANCH   6   9
HETATM    9  O   LIG     1      18.401  36.361  19.039  1.00  0.00    -0.358 OA
HETATM   10  H   LIG     1      18.944  36.535  18.201  1.00  0.00     0.217 HD
ENDBRANCH   6   9
TORSDOF 2
ENDMDL
MODEL 14
REMARK VINA RESULT:      -4.9      1.888      4.012
REMARK  2 active torsions:
REMARK  status: ('A' for Active; 'I' for Inactive)
REMARK    1  A    between atoms: O_2  and  C_3 
REMARK    2  A    between atoms: C_8  and  O_9 
ROOT
HETATM    1  C   LIG     1      17.219  36.134  24.134  1.00  0.00     0.101 A 
HETATM    2  C   LIG     1      17.463  37.400  24.705  1.00  0.00     0.039 A 
HETATM    3  C   LIG     1      17.400  38.554  23.921  1.00  0.00     0.003 A 
HETATM    4  C   LIG     1      17.095  38.461  22.562  1.00  0.00     0.003 A 
HETATM    5  C   LIG     1      16.851  37.214  21.984  1.00  0.00     0.039 A 
HETATM    6  C   LIG     1      16.912  36.050  22.761  1.00  0.00     0.099 A 
ENDROOT
BRANCH   1   7
HETATM    7  O   LIG     1      17.274  34.953  24.890  1.00  0.00    -0.353 OA
HETATM    8  C   LIG     1      17.909  34.837  26.159  1.00  0.00     0.210 C 
ENDBRANCH   1   7
BRANCH   6   9
HETATM    9  O   LIG     1      16.663  34.821  22.152  1.00  0.00    -0.358 OA
HETATM   10  H   LIG     1      17.372  34.328  21.622  1.00  0.00     0.217 HD
ENDBRANCH   6   9
TORSDOF 2
ENDMDL
MODEL 15
REMARK VINA RESULT:      -4.7     10.202     11.690
REMARK  2 active torsions:
REMARK  status: ('A' for Active; 'I' for Inactive)
REMARK    1  A    between atoms: O_2  and  C_3 
REMARK    2  A    between atoms: C_8  and  O_9 
ROOT
HETATM    1  C   LIG     1      14.609  30.757  14.861  1.00  0.00     0.101 A 
HETATM    2  C   LIG     1      13.526  30.682  15.760  1.00  0.00     0.039 A 
HETATM    3  C   LIG     1      13.442  31.563  16.841  1.00  0.00     0.003 A 
HETATM    4  C   LIG     1      14.434  32.525  17.038  1.00  0.00     0.003 A 
HETATM    5  C   LIG     1      15.512  32.609  16.155  1.00  0.00     0.039 A 
HETATM    6  C   LIG     1      15.606  31.731  15.068  1.00  0.00     0.099 A 
ENDROOT
BRANCH   1   7
HETATM    7  O   LIG     1      14.727  29.889  13.763  1.00  0.00    -0.353 OA
HETATM    8  C   LIG     1      15.284  28.580  13.827  1.00  0.00     0.210 C 
ENDBRANCH   1   7
BRANCH   6   9
HETATM    9  O   LIG     1      16.695  31.843  14.205  1.00  0.00    -0.358 OA
HETATM   10  H   LIG     1      17.507  31.241  14.280  1.00  0.00     0.217 HD
ENDBRANCH   6   9
TORSDOF 2
ENDMDL
MODEL 16
REMARK VINA RESULT:      -4.6      1.854      3.881
REMARK  2 active torsions:
REMARK  status: ('A' for Active; 'I' for Inactive)
REMARK    1  A    between atoms: O_2  and  C_3 
REMARK    2  A    between atoms: C_8  and  O_9 
ROOT
HETATM    1  C   LIG     1      17.119  36.941  23.749  1.00  0.00     0.101 A 
HETATM    2  C   LIG     1      17.287  37.891  22.721  1.00  0.00     0.039 A 
HETATM    3  C   LIG     1      17.407  37.481  21.391  1.00  0.00     0.003 A 
HETATM    4  C   LIG     1      17.360  36.123  21.070  1.00  0.00     0.003 A 
HETATM    5  C   LIG     1      17.194  35.173  22.078  1.00  0.00     0.039 A 
HETATM    6  C   LIG     1      17.073  35.573  23.416  1.00  0.00     0.099 A 
ENDROOT
BRANCH   1   7
HETATM    7  O   LIG     1      16.996  37.315  25.096  1.00  0.00    -0.353 OA
HETATM    8  C   LIG     1      17.378  38.584  25.618  1.00  0.00     0.210 C 
ENDBRANCH   1   7
BRANCH   6   9
HETATM    9  O   LIG     1      16.909  34.596  24.398  1.00  0.00    -0.358 OA
HETATM   10  H   LIG     1      16.024  34.125  24.546  1.00  0.00     0.217 HD
ENDBRANCH   6   9
TORSDOF 2
ENDMDL
MODEL 17
REMARK VINA RESULT:      -4.6      3.980      4.727
REMARK  2 active torsions:
REMARK  status: ('A' for Active; 'I' for Inactive)
REMARK    1  A    between atoms: O_2  and  C_3 
REMARK    2  A    between atoms: C_8  and  O_9 
ROOT
HETATM    1  C   LIG     1      17.757  37.100  20.953  1.00  0.00     0.101 A 
HETATM    2  C   LIG     1      17.790  38.285  21.718  1.00  0.00     0.039 A 
HETATM    3  C   LIG     1      16.776  38.561  22.639  1.00  0.00     0.003 A 
HETATM    4  C   LIG     1      15.721  37.662  22.808  1.00  0.00     0.003 A 
HETATM    5  C   LIG     1      15.677  36.486  22.058  1.00  0.00     0.039 A 
HETATM    6  C   LIG     1      16.688  36.200  21.132  1.00  0.00     0.099 A 
ENDROOT
BRANCH   1   7
HETATM    7  O   LIG     1      18.757  36.790  20.018  1.00  0.00    -0.353 OA
HETATM    8  C   LIG     1      19.601  37.751  19.392  1.00  0.00     0.210 C 
ENDBRANCH   1   7
BRANCH   6   9
HETATM    9  O   LIG     1      16.613  35.016  20.398  1.00  0.00    -0.358 OA
HETATM   10  H   LIG     1      16.744  34.107  20.827  1.00  0.00     0.217 HD
ENDBRANCH   6   9
TORSDOF 2
ENDMDL
MODEL 18
REMARK VINA RESULT:      -4.4      9.807     11.449
REMARK  2 active torsions:
REMARK  status: ('A' for Active; 'I' for Inactive)
REMARK    1  A    between atoms: O_2  and  C_3 
REMARK    2  A    between atoms: C_8  and  O_9 
ROOT
HETATM    1  C   LIG     1      14.139  30.848  15.409  1.00  0.00     0.101 A 
HETATM    2  C   LIG     1      15.215  30.997  14.510  1.00  0.00     0.039 A 
HETATM    3  C   LIG     1      16.175  31.992  14.714  1.00  0.00     0.003 A 
HETATM    4  C   LIG     1      16.075  32.846  15.814  1.00  0.00     0.003 A 
HETATM    5  C   LIG     1      15.015  32.708  16.712  1.00  0.00     0.039 A 
HETATM    6  C   LIG     1      14.047  31.714  16.516  1.00  0.00     0.099 A 
ENDROOT
BRANCH   1   7
HETATM    7  O   LIG     1      13.156  29.861  15.236  1.00  0.00    -0.353 OA
HETATM    8  C   LIG     1      13.133  28.926  14.163  1.00  0.00     0.210 C 
ENDBRANCH   1   7
BRANCH   6   9
HETATM    9  O   LIG     1      13.002  31.604  17.433  1.00  0.00    -0.358 OA
HETATM   10  H   LIG     1      12.425  30.774  17.496  1.00  0.00     0.217 HD
ENDBRANCH   6   9
TORSDOF 2
ENDMDL
MODEL 19
REMARK VINA RESULT:      -4.4      3.192      4.510
REMARK  2 active torsions:
REMARK  status: ('A' for Active; 'I' for Inactive)
REMARK    1  A    between atoms: O_2  and  C_3 
REMARK    2  A    between atoms: C_8  and  O_9 
ROOT
HETATM    1  C   LIG     1      17.781  37.425  21.287  1.00  0.00     0.101 A 
HETATM    2  C   LIG     1      17.268  37.381  22.600  1.00  0.00     0.039 A 
HETATM    3  C   LIG     1      16.593  36.246  23.058  1.00  0.00     0.003 A 
HETATM    4  C   LIG     1      16.422  35.146  22.215  1.00  0.00     0.003 A 
HETATM    5  C   LIG     1      16.924  35.178  20.914  1.00  0.00     0.039 A 
HETATM    6  C   LIG     1      17.603  36.310  20.445  1.00  0.00     0.099 A 
ENDROOT
BRANCH   1   7
HETATM    7  O   LIG     1      18.464  38.547  20.792  1.00  0.00    -0.353 OA
HETATM    8  C   LIG     1      18.744  39.719  21.551  1.00  0.00     0.210 C 
ENDBRANCH   1   7
BRANCH   6   9
HETATM    9  O   LIG     1      18.092  36.308  19.139  1.00  0.00    -0.358 OA
HETATM   10  H   LIG     1      18.868  35.722  18.855  1.00  0.00     0.217 HD
ENDBRANCH   6   9
TORSDOF 2
ENDMDL
MODEL 20
REMARK VINA RESULT:      -4.1      6.586      8.486
REMARK  2 active torsions:
REMARK  status: ('A' for Active; 'I' for Inactive)
REMARK    1  A    between atoms: O_2  and  C_3 
REMARK    2  A    between atoms: C_8  and  O_9 
ROOT
HETATM    1  C   LIG     1      15.336  33.145  19.086  1.00  0.00     0.101 A 
HETATM    2  C   LIG     1      15.362  33.977  17.947  1.00  0.00     0.039 A 
HETATM    3  C   LIG     1      14.767  33.560  16.754  1.00  0.00     0.003 A 
HETATM    4  C   LIG     1      14.141  32.314  16.682  1.00  0.00     0.003 A 
HETATM    5  C   LIG     1      14.109  31.482  17.802  1.00  0.00     0.039 A 
HETATM    6  C   LIG     1      14.702  31.890  19.003  1.00  0.00     0.099 A 
ENDROOT
BRANCH   1   7
HETATM    7  O   LIG     1      15.924  33.530  20.301  1.00  0.00    -0.353 OA
HETATM    8  C   LIG     1      15.319  34.404  21.248  1.00  0.00     0.210 C 
ENDBRANCH   1   7
BRANCH   6   9
HETATM    9  O   LIG     1      14.651  31.034  20.103  1.00  0.00    -0.358 OA
HETATM   10  H   LIG     1      14.404  31.361  21.029  1.00  0.00     0.217 HD
ENDBRANCH   6   9
TORSDOF 2
ENDMDL
