MODEL 1
REMARK VINA RESULT:      -6.5      0.000      0.000
REMARK  3 active torsions:
REMARK  status: ('A' for Active; 'I' for Inactive)
REMARK    1  A    between atoms: O_1  and  C_2 
REMARK    2  A    between atoms: C_3  and  C_4 
REMARK    3  A    between atoms: C_4  and  O_5 
ROOT
HETATM    1  C   LIG     1      17.497  37.532  25.435  1.00  0.00     0.074 A 
HETATM    2  C   LIG     1      17.008  36.765  24.359  1.00  0.00    -0.002 A 
HETATM    3  C   LIG     1      17.182  35.372  24.370  1.00  0.00     0.012 A 
HETATM    4  C   LIG     1      17.812  34.748  25.451  1.00  0.00     0.001 A 
HETATM    5  C   LIG     1      18.282  35.508  26.523  1.00  0.00     0.003 A 
HETATM    6  C   LIG     1      18.128  36.897  26.515  1.00  0.00     0.037 A 
ENDROOT
BRANCH   2   7
HETATM    7  C   LIG     1      16.354  37.430  23.175  1.00  0.00     0.205 C 
BRANCH   7   8
HETATM    8  O   LIG     1      15.191  38.098  23.579  1.00  0.00    -0.396 OA
HETATM    9  H   LIG     1      14.738  38.404  22.751  1.00  0.00     0.209 HD
ENDBRANCH   7   8
ENDBRANCH   2   7
BRANCH   1  10
HETATM   10  O   LIG     1      17.358  38.921  25.427  1.00  0.00    -0.360 OA
HETATM   11  H   LIG     1      16.916  39.405  24.654  1.00  0.00     0.217 HD
ENDBRANCH   1  10
TORSDOF 3
ENDMDL
MODEL 2
REMARK VINA RESULT:      -6.1      1.147      2.200
REMARK  3 active torsions:
REMARK  status: ('A' for Active; 'I' for Inactive)
REMARK    1  A    between atoms: O_1  and  C_2 
REMARK    2  A    between atoms: C_3  and  C_4 
REMARK    3  A    between atoms: C_4  and  O_5 
ROOT
HETATM    1  C   LIG     1      17.154  35.743  24.220  1.00  0.00     0.074 A 
HETATM    2  C   LIG     1      17.250  37.106  24.564  1.00  0.00    -0.002 A 
HETATM    3  C   LIG     1      17.796  37.466  25.807  1.00  0.00     0.012 A 
HETATM    4  C   LIG     1      18.266  36.484  26.683  1.00  0.00     0.001 A 
HETATM    5  C   LIG     1      18.184  35.135  26.332  1.00  0.00     0.003 A 
HETATM    6  C   LIG     1      17.628  34.764  25.106  1.00  0.00     0.037 A 
ENDROOT
BRANCH   2   7
HETATM    7  C   LIG     1      16.720  38.172  23.641  1.00  0.00     0.205 C 
BRANCH   7   8
HETATM    8  O   LIG     1      15.321  38.119  23.596  1.00  0.00    -0.396 OA
HETATM    9  H   LIG     1      14.991  38.936  24.055  1.00  0.00     0.209 HD
ENDBRANCH   7   8
ENDBRANCH   2   7
BRANCH   1  10
HETATM   10  O   LIG     1      16.588  35.366  23.001  1.00  0.00    -0.360 OA
HETATM   11  H   LIG     1      15.853  35.912  22.567  1.00  0.00     0.217 HD
ENDBRANCH   1  10
TORSDOF 3
ENDMDL
MODEL 3
REMARK VINA RESULT:      -5.7      1.244      3.058
REMARK  3 active torsions:
REMARK  status: ('A' for Active; 'I' for Inactive)
REMARK    1  A    between atoms: O_1  and  C_2 
REMARK    2  A    between atoms: C_3  and  C_4 
REMARK    3  A    between atoms: C_4  and  O_5 
ROOT
HETATM    1  C   LIG     1      17.124  37.517  24.613  1.00  0.00     0.074 A 
HETATM    2  C   LIG     1      17.492  36.254  25.117  1.00  0.00    -0.002 A 
HETATM    3  C   LIG     1      17.351  35.119  24.302  1.00  0.00     0.012 A 
HETATM    4  C   LIG     1      16.876  35.244  22.993  1.00  0.00     0.001 A 
HETATM    5  C   LIG     1      16.528  36.500  22.491  1.00  0.00     0.003 A 
HETATM    6  C   LIG     1      16.649  37.633  23.298  1.00  0.00     0.037 A 
ENDROOT
BRANCH   2   7
HETATM    7  C   LIG     1      17.977  36.103  26.536  1.00  0.00     0.205 C 
BRANCH   7   8
HETATM    8  O   LIG     1      18.982  37.040  26.804  1.00  0.00    -0.396 OA
HETATM    9  H   LIG     1      18.524  37.887  27.047  1.00  0.00     0.209 HD
ENDBRANCH   7   8
ENDBRANCH   2   7
BRANCH   1  10
HETATM   10  O   LIG     1      17.231  38.652  25.419  1.00  0.00    -0.360 OA
HETATM   11  H   LIG     1      16.445  39.275  25.563  1.00  0.00     0.217 HD
ENDBRANCH   1  10
TORSDOF 3
ENDMDL
MODEL 4
REMARK VINA RESULT:      -5.6      3.060      4.865
REMARK  3 active torsions:
REMARK  status: ('A' for Active; 'I' for Inactive)
REMARK    1  A    between atoms: O_1  and  C_2 
REMARK    2  A    between atoms: C_3  and  C_4 
REMARK    3  A    between atoms: C_4  and  O_5 
ROOT
HETATM    1  C   LIG     1      17.530  36.908  21.271  1.00  0.00     0.074 A 
HETATM    2  C   LIG     1      17.525  38.110  22.007  1.00  0.00    -0.002 A 
HETATM    3  C   LIG     1      18.340  39.176  21.593  1.00  0.00     0.012 A 
HETATM    4  C   LIG     1      19.131  39.056  20.446  1.00  0.00     0.001 A 
HETATM    5  C   LIG     1      19.122  37.870  19.710  1.00  0.00     0.003 A 
HETATM    6  C   LIG     1      18.327  36.798  20.121  1.00  0.00     0.037 A 
ENDROOT
BRANCH   2   7
HETATM    7  C   LIG     1      16.700  38.240  23.261  1.00  0.00     0.205 C 
BRANCH   7   8
HETATM    8  O   LIG     1      15.336  38.214  22.945  1.00  0.00    -0.396 OA
HETATM    9  H   LIG     1      14.912  37.569  23.570  1.00  0.00     0.209 HD
ENDBRANCH   7   8
ENDBRANCH   2   7
BRANCH   1  10
HETATM   10  O   LIG     1      16.748  35.830  21.684  1.00  0.00    -0.360 OA
HETATM   11  H   LIG     1      17.130  35.087  22.258  1.00  0.00     0.217 HD
ENDBRANCH   1  10
TORSDOF 3
ENDMDL
MODEL 5
REMARK VINA RESULT:      -5.5      4.081      5.089
REMARK  3 active torsions:
REMARK  status: ('A' for Active; 'I' for Inactive)
REMARK    1  A    between atoms: O_1  and  C_2 
REMARK    2  A    between atoms: C_3  and  C_4 
REMARK    3  A    between atoms: C_4  and  O_5 
ROOT
HETATM    1  C   LIG     1      18.380  38.759  21.283  1.00  0.00     0.074 A 
HETATM    2  C   LIG     1      18.971  38.024  20.236  1.00  0.00    -0.002 A 
HETATM    3  C   LIG     1      18.526  36.718  19.973  1.00  0.00     0.012 A 
HETATM    4  C   LIG     1      17.489  36.162  20.726  1.00  0.00     0.001 A 
HETATM    5  C   LIG     1      16.894  36.898  21.752  1.00  0.00     0.003 A 
HETATM    6  C   LIG     1      17.339  38.192  22.032  1.00  0.00     0.037 A 
ENDROOT
BRANCH   2   7
HETATM    7  C   LIG     1      20.111  38.603  19.438  1.00  0.00     0.205 C 
BRANCH   7   8
HETATM    8  O   LIG     1      19.638  39.603  18.578  1.00  0.00    -0.396 OA
HETATM    9  H   LIG     1      19.896  39.331  17.658  1.00  0.00     0.209 HD
ENDBRANCH   7   8
ENDBRANCH   2   7
BRANCH   1  10
HETATM   10  O   LIG     1      18.830  40.047  21.576  1.00  0.00    -0.360 OA
HETATM   11  H   LIG     1      19.796  40.229  21.821  1.00  0.00     0.217 HD
ENDBRANCH   1  10
TORSDOF 3
ENDMDL
MODEL 6
REMARK VINA RESULT:      -5.5      3.581      5.314
REMARK  3 active torsions:
REMARK  status: ('A' for Active; 'I' for Inactive)
REMARK    1  A    between atoms: O_1  and  C_2 
REMARK    2  A    between atoms: C_3  and  C_4 
REMARK    3  A    between atoms: C_4  and  O_5 
ROOT
HETATM    1  C   LIG     1      17.939  36.769  20.487  1.00  0.00     0.074 A 
HETATM    2  C   LIG     1      17.663  37.750  21.460  1.00  0.00    -0.002 A 
HETATM    3  C   LIG     1      18.406  38.942  21.469  1.00  0.00     0.012 A 
HETATM    4  C   LIG     1      19.393  39.165  20.504  1.00  0.00     0.001 A 
HETATM    5  C   LIG     1      19.653  38.198  19.531  1.00  0.00     0.003 A 
HETATM    6  C   LIG     1      18.931  37.003  19.523  1.00  0.00     0.037 A 
ENDROOT
BRANCH   2   7
HETATM    7  C   LIG     1      16.622  37.508  22.523  1.00  0.00     0.205 C 
BRANCH   7   8
HETATM    8  O   LIG     1      16.968  36.388  23.289  1.00  0.00    -0.396 OA
HETATM    9  H   LIG     1      16.790  36.626  24.237  1.00  0.00     0.209 HD
ENDBRANCH   7   8
ENDBRANCH   2   7
BRANCH   1  10
HETATM   10  O   LIG     1      17.229  35.568  20.482  1.00  0.00    -0.360 OA
HETATM   11  H   LIG     1      17.076  35.047  19.627  1.00  0.00     0.217 HD
ENDBRANCH   1  10
TORSDOF 3
ENDMDL
MODEL 7
REMARK VINA RESULT:      -5.4      4.223      5.162
REMARK  3 active torsions:
REMARK  status: ('A' for Active; 'I' for Inactive)
REMARK    1  A    between atoms: O_1  and  C_2 
REMARK    2  A    between atoms: C_3  and  C_4 
REMARK    3  A    between atoms: C_4  and  O_5 
ROOT
HETATM    1  C   LIG     1      18.261  36.957  20.372  1.00  0.00     0.074 A 
HETATM    2  C   LIG     1      18.414  38.257  20.893  1.00  0.00    -0.002 A 
HETATM    3  C   LIG     1      17.610  38.668  21.968  1.00  0.00     0.012 A 
HETATM    4  C   LIG     1      16.685  37.787  22.535  1.00  0.00     0.001 A 
HETATM    5  C   LIG     1      16.547  36.494  22.027  1.00  0.00     0.003 A 
HETATM    6  C   LIG     1      17.330  36.080  20.947  1.00  0.00     0.037 A 
ENDROOT
BRANCH   2   7
HETATM    7  C   LIG     1      19.387  39.226  20.271  1.00  0.00     0.205 C 
BRANCH   7   8
HETATM    8  O   LIG     1      18.981  39.547  18.969  1.00  0.00    -0.396 OA
HETATM    9  H   LIG     1      18.979  38.698  18.455  1.00  0.00     0.209 HD
ENDBRANCH   7   8
ENDBRANCH   2   7
BRANCH   1  10
HETATM   10  O   LIG     1      19.032  36.542  19.285  1.00  0.00    -0.360 OA
HETATM   11  H   LIG     1      18.835  36.860  18.343  1.00  0.00     0.217 HD
ENDBRANCH   1  10
TORSDOF 3
ENDMDL
MODEL 8
REMARK VINA RESULT:      -5.4      2.933      4.265
REMARK  3 active torsions:
REMARK  status: ('A' for Active; 'I' for Inactive)
REMARK    1  A    between atoms: O_1  and  C_2 
REMARK    2  A    between atoms: C_3  and  C_4 
REMARK    3  A    between atoms: C_4  and  O_5 
ROOT
HETATM    1  C   LIG     1      18.398  38.666  21.382  1.00  0.00     0.074 A 
HETATM    2  C   LIG     1      17.499  37.999  22.237  1.00  0.00    -0.002 A 
HETATM    3  C   LIG     1      17.043  36.715  21.894  1.00  0.00     0.012 A 
HETATM    4  C   LIG     1      17.498  36.094  20.729  1.00  0.00     0.001 A 
HETATM    5  C   LIG     1      18.402  36.750  19.891  1.00  0.00     0.003 A 
HETATM    6  C   LIG     1      18.849  38.033  20.214  1.00  0.00     0.037 A 
ENDROOT
BRANCH   2   7
HETATM    7  C   LIG     1      16.978  38.672  23.482  1.00  0.00     0.205 C 
BRANCH   7   8
HETATM    8  O   LIG     1      15.825  38.019  23.935  1.00  0.00    -0.396 OA
HETATM    9  H   LIG     1      16.077  37.071  24.089  1.00  0.00     0.209 HD
ENDBRANCH   7   8
ENDBRANCH   2   7
BRANCH   1  10
HETATM   10  O   LIG     1      18.838  39.953  21.693  1.00  0.00    -0.360 OA
HETATM   11  H   LIG     1      19.654  40.356  21.248  1.00  0.00     0.217 HD
ENDBRANCH   1  10
TORSDOF 3
ENDMDL
MODEL 9
REMARK VINA RESULT:      -5.4      1.971      3.659
REMARK  3 active torsions:
REMARK  status: ('A' for Active; 'I' for Inactive)
REMARK    1  A    between atoms: O_1  and  C_2 
REMARK    2  A    between atoms: C_3  and  C_4 
REMARK    3  A    between atoms: C_4  and  O_5 
ROOT
HETATM    1  C   LIG     1      17.185  35.671  24.136  1.00  0.00     0.074 A 
HETATM    2  C   LIG     1      17.281  37.065  24.315  1.00  0.00    -0.002 A 
HETATM    3  C   LIG     1      17.233  37.910  23.194  1.00  0.00     0.012 A 
HETATM    4  C   LIG     1      17.065  37.375  21.914  1.00  0.00     0.001 A 
HETATM    5  C   LIG     1      16.954  35.994  21.741  1.00  0.00     0.003 A 
HETATM    6  C   LIG     1      17.016  35.144  22.847  1.00  0.00     0.037 A 
ENDROOT
BRANCH   2   7
HETATM    7  C   LIG     1      17.492  37.651  25.687  1.00  0.00     0.205 C 
BRANCH   7   8
HETATM    8  O   LIG     1      18.746  37.273  26.185  1.00  0.00    -0.396 OA
HETATM    9  H   LIG     1      19.381  37.327  25.424  1.00  0.00     0.209 HD
ENDBRANCH   7   8
ENDBRANCH   2   7
BRANCH   1  10
HETATM   10  O   LIG     1      17.259  34.816  25.236  1.00  0.00    -0.360 OA
HETATM   11  H   LIG     1      16.611  34.892  26.011  1.00  0.00     0.217 HD
ENDBRANCH   1  10
TORSDOF 3
ENDMDL
MODEL 10
REMARK VINA RESULT:      -5.4     10.224     11.642
REMARK  3 active torsions:
REMARK  status: ('A' for Active; 'I' for Inactive)
REMARK    1  A    between atoms: O_1  and  C_2 
REMARK    2  A    between atoms: C_3  and  C_4 
REMARK    3  A    between atoms: C_4  and  O_5 
ROOT
HETATM    1  C   LIG     1      13.445  30.560  15.836  1.00  0.00     0.074 A 
HETATM    2  C   LIG     1      14.340  31.587  16.194  1.00  0.00    -0.002 A 
HETATM    3  C   LIG     1      15.468  31.831  15.393  1.00  0.00     0.012 A 
HETATM    4  C   LIG     1      15.686  31.079  14.235  1.00  0.00     0.001 A 
HETATM    5  C   LIG     1      14.789  30.073  13.873  1.00  0.00     0.003 A 
HETATM    6  C   LIG     1      13.673  29.811  14.671  1.00  0.00     0.037 A 
ENDROOT
BRANCH   2   7
HETATM    7  C   LIG     1      14.131  32.383  17.456  1.00  0.00     0.205 C 
BRANCH   7   8
HETATM    8  O   LIG     1      13.998  31.522  18.553  1.00  0.00    -0.396 OA
HETATM    9  H   LIG     1      14.914  31.222  18.791  1.00  0.00     0.209 HD
ENDBRANCH   7   8
ENDBRANCH   2   7
BRANCH   1  10
HETATM   10  O   LIG     1      12.335  30.285  16.636  1.00  0.00    -0.360 OA
HETATM   11  H   LIG     1      11.905  31.002  17.208  1.00  0.00     0.217 HD
ENDBRANCH   1  10
TORSDOF 3
ENDMDL
MODEL 11
REMARK VINA RESULT:      -5.4      3.405      4.752
REMARK  3 active torsions:
REMARK  status: ('A' for Active; 'I' for Inactive)
REMARK    1  A    between atoms: O_1  and  C_2 
REMARK    2  A    between atoms: C_3  and  C_4 
REMARK    3  A    between atoms: C_4  and  O_5 
ROOT
HETATM    1  C   LIG     1      17.963  38.631  21.590  1.00  0.00     0.074 A 
HETATM    2  C   LIG     1      17.644  37.296  21.270  1.00  0.00    -0.002 A 
HETATM    3  C   LIG     1      18.283  36.675  20.184  1.00  0.00     0.012 A 
HETATM    4  C   LIG     1      19.246  37.366  19.443  1.00  0.00     0.001 A 
HETATM    5  C   LIG     1      19.572  38.683  19.773  1.00  0.00     0.003 A 
HETATM    6  C   LIG     1      18.932  39.315  20.841  1.00  0.00     0.037 A 
ENDROOT
BRANCH   2   7
HETATM    7  C   LIG     1      16.586  36.552  22.043  1.00  0.00     0.205 C 
BRANCH   7   8
HETATM    8  O   LIG     1      16.910  36.531  23.406  1.00  0.00    -0.396 OA
HETATM    9  H   LIG     1      16.235  35.952  23.848  1.00  0.00     0.209 HD
ENDBRANCH   7   8
ENDBRANCH   2   7
BRANCH   1  10
HETATM   10  O   LIG     1      17.318  39.272  22.648  1.00  0.00    -0.360 OA
HETATM   11  H   LIG     1      16.481  39.823  22.502  1.00  0.00     0.217 HD
ENDBRANCH   1  10
TORSDOF 3
ENDMDL
MODEL 12
REMARK VINA RESULT:      -5.3      4.265      5.156
REMARK  3 active torsions:
REMARK  status: ('A' for Active; 'I' for Inactive)
REMARK    1  A    between atoms: O_1  and  C_2 
REMARK    2  A    between atoms: C_3  and  C_4 
REMARK    3  A    between atoms: C_4  and  O_5 
ROOT
HETATM    1  C   LIG     1      18.465  37.286  20.238  1.00  0.00     0.074 A 
HETATM    2  C   LIG     1      17.480  36.855  21.149  1.00  0.00    -0.002 A 
HETATM    3  C   LIG     1      17.086  37.708  22.193  1.00  0.00     0.012 A 
HETATM    4  C   LIG     1      17.646  38.983  22.312  1.00  0.00     0.001 A 
HETATM    5  C   LIG     1      18.610  39.413  21.398  1.00  0.00     0.003 A 
HETATM    6  C   LIG     1      19.021  38.567  20.366  1.00  0.00     0.037 A 
ENDROOT
BRANCH   2   7
HETATM    7  C   LIG     1      16.891  35.472  21.048  1.00  0.00     0.205 C 
BRANCH   7   8
HETATM    8  O   LIG     1      16.358  35.267  19.769  1.00  0.00    -0.396 OA
HETATM    9  H   LIG     1      15.731  36.018  19.599  1.00  0.00     0.209 HD
ENDBRANCH   7   8
ENDBRANCH   2   7
BRANCH   1  10
HETATM   10  O   LIG     1      18.888  36.440  19.212  1.00  0.00    -0.360 OA
HETATM   11  H   LIG     1      19.684  35.825  19.326  1.00  0.00     0.217 HD
ENDBRANCH   1  10
TORSDOF 3
ENDMDL
MODEL 13
REMARK VINA RESULT:      -5.2      9.644     11.037
REMARK  3 active torsions:
REMARK  status: ('A' for Active; 'I' for Inactive)
REMARK    1  A    between atoms: O_1  and  C_2 
REMARK    2  A    between atoms: C_3  and  C_4 
REMARK    3  A    between atoms: C_4  and  O_5 
ROOT
HETATM    1  C   LIG     1      13.691  31.520  16.426  1.00  0.00     0.074 A 
HETATM    2  C   LIG     1      14.865  32.225  16.095  1.00  0.00    -0.002 A 
HETATM    3  C   LIG     1      15.661  31.778  15.028  1.00  0.00     0.012 A 
HETATM    4  C   LIG     1      15.278  30.659  14.282  1.00  0.00     0.001 A 
HETATM    5  C   LIG     1      14.106  29.972  14.601  1.00  0.00     0.003 A 
HETATM    6  C   LIG     1      13.315  30.398  15.671  1.00  0.00     0.037 A 
ENDROOT
BRANCH   2   7
HETATM    7  C   LIG     1      15.303  33.414  16.911  1.00  0.00     0.205 C 
BRANCH   7   8
HETATM    8  O   LIG     1      14.332  34.422  16.853  1.00  0.00    -0.396 OA
HETATM    9  H   LIG     1      13.535  34.023  16.415  1.00  0.00     0.209 HD
ENDBRANCH   7   8
ENDBRANCH   2   7
BRANCH   1  10
HETATM   10  O   LIG     1      12.903  31.933  17.501  1.00  0.00    -0.360 OA
HETATM   11  H   LIG     1      12.799  32.913  17.736  1.00  0.00     0.217 HD
ENDBRANCH   1  10
TORSDOF 3
ENDMDL
MODEL 14
REMARK VINA RESULT:      -5.1      9.557     10.698
REMARK  3 active torsions:
REMARK  status: ('A' for Active; 'I' for Inactive)
REMARK    1  A    between atoms: O_1  and  C_2 
REMARK    2  A    between atoms: C_3  and  C_4 
REMARK    3  A    between atoms: C_4  and  O_5 
ROOT
HETATM    1  C   LIG     1      14.912  32.405  16.709  1.00  0.00     0.074 A 
HETATM    2  C   LIG     1      15.612  32.048  15.539  1.00  0.00    -0.002 A 
HETATM    3  C   LIG     1      15.108  31.025  14.719  1.00  0.00     0.012 A 
HETATM    4  C   LIG     1      13.910  30.384  15.045  1.00  0.00     0.001 A 
HETATM    5  C   LIG     1      13.210  30.751  16.196  1.00  0.00     0.003 A 
HETATM    6  C   LIG     1      13.709  31.756  17.028  1.00  0.00     0.037 A 
ENDROOT
BRANCH   2   7
HETATM    7  C   LIG     1      16.920  32.711  15.193  1.00  0.00     0.205 C 
BRANCH   7   8
HETATM    8  O   LIG     1      16.811  34.099  15.344  1.00  0.00    -0.396 OA
HETATM    9  H   LIG     1      17.382  34.507  14.641  1.00  0.00     0.209 HD
ENDBRANCH   7   8
ENDBRANCH   2   7
BRANCH   1  10
HETATM   10  O   LIG     1      15.413  33.399  17.550  1.00  0.00    -0.360 OA
HETATM   11  H   LIG     1      15.434  33.281  18.556  1.00  0.00     0.217 HD
ENDBRANCH   1  10
TORSDOF 3
ENDMDL
MODEL 15
REMARK VINA RESULT:      -5.1     10.539     11.817
REMARK  3 active torsions:
REMARK  status: ('A' for Active; 'I' for Inactive)
REMARK    1  A    between atoms: O_1  and  C_2 
REMARK    2  A    between atoms: C_3  and  C_4 
REMARK    3  A    between atoms: C_4  and  O_5 
ROOT
HETATM    1  C   LIG     1      13.492  30.879  16.286  1.00  0.00     0.074 A 
HETATM    2  C   LIG     1      14.184  30.436  15.141  1.00  0.00    -0.002 A 
HETATM    3  C   LIG     1      15.300  31.156  14.687  1.00  0.00     0.012 A 
HETATM    4  C   LIG     1      15.738  32.289  15.380  1.00  0.00     0.001 A 
HETATM    5  C   LIG     1      15.060  32.717  16.522  1.00  0.00     0.003 A 
HETATM    6  C   LIG     1      13.939  32.017  16.974  1.00  0.00     0.037 A 
ENDROOT
BRANCH   2   7
HETATM    7  C   LIG     1      13.703  29.234  14.370  1.00  0.00     0.205 C 
BRANCH   7   8
HETATM    8  O   LIG     1      12.316  29.302  14.186  1.00  0.00    -0.396 OA
HETATM    9  H   LIG     1      12.144  30.100  13.620  1.00  0.00     0.209 HD
ENDBRANCH   7   8
ENDBRANCH   2   7
BRANCH   1  10
HETATM   10  O   LIG     1      12.364  30.192  16.734  1.00  0.00    -0.360 OA
HETATM   11  H   LIG     1      11.464  30.649  16.823  1.00  0.00     0.217 HD
ENDBRANCH   1  10
TORSDOF 3
ENDMDL
MODEL 16
REMARK VINA RESULT:      -5.0      2.209      3.677
REMARK  3 active torsions:
REMARK  status: ('A' for Active; 'I' for Inactive)
REMARK    1  A    between atoms: O_1  and  C_2 
REMARK    2  A    between atoms: C_3  and  C_4 
REMARK    3  A    between atoms: C_4  and  O_5 
ROOT
HETATM    1  C   LIG     1      17.161  36.009  23.937  1.00  0.00     0.074 A 
HETATM    2  C   LIG     1      17.537  36.129  25.289  1.00  0.00    -0.002 A 
HETATM    3  C   LIG     1      17.723  37.406  25.843  1.00  0.00     0.012 A 
HETATM    4  C   LIG     1      17.510  38.549  25.067  1.00  0.00     0.001 A 
HETATM    5  C   LIG     1      17.122  38.427  23.732  1.00  0.00     0.003 A 
HETATM    6  C   LIG     1      16.950  37.162  23.166  1.00  0.00     0.037 A 
ENDROOT
BRANCH   2   7
HETATM    7  C   LIG     1      17.798  34.903  26.127  1.00  0.00     0.205 C 
BRANCH   7   8
HETATM    8  O   LIG     1      16.586  34.308  26.500  1.00  0.00    -0.396 OA
HETATM    9  H   LIG     1      16.709  33.327  26.401  1.00  0.00     0.209 HD
ENDBRANCH   7   8
ENDBRANCH   2   7
BRANCH   1  10
HETATM   10  O   LIG     1      17.000  34.747  23.363  1.00  0.00    -0.360 OA
HETATM   11  H   LIG     1      17.194  33.899  23.883  1.00  0.00     0.217 HD
ENDBRANCH   1  10
TORSDOF 3
ENDMDL
MODEL 17
REMARK VINA RESULT:      -5.0      9.604     10.952
REMARK  3 active torsions:
REMARK  status: ('A' for Active; 'I' for Inactive)
REMARK    1  A    between atoms: O_1  and  C_2 
REMARK    2  A    between atoms: C_3  and  C_4 
REMARK    3  A    between atoms: C_4  and  O_5 
ROOT
HETATM    1  C   LIG     1      15.515  31.828  15.389  1.00  0.00     0.074 A 
HETATM    2  C   LIG     1      14.721  32.275  16.463  1.00  0.00    -0.002 A 
HETATM    3  C   LIG     1      13.483  31.658  16.710  1.00  0.00     0.012 A 
HETATM    4  C   LIG     1      13.055  30.592  15.913  1.00  0.00     0.001 A 
HETATM    5  C   LIG     1      13.852  30.141  14.860  1.00  0.00     0.003 A 
HETATM    6  C   LIG     1      15.077  30.757  14.596  1.00  0.00     0.037 A 
ENDROOT
BRANCH   2   7
HETATM    7  C   LIG     1      15.158  33.443  17.309  1.00  0.00     0.205 C 
BRANCH   7   8
HETATM    8  O   LIG     1      15.590  34.495  16.492  1.00  0.00    -0.396 OA
HETATM    9  H   LIG     1      16.037  35.152  17.088  1.00  0.00     0.209 HD
ENDBRANCH   7   8
ENDBRANCH   2   7
BRANCH   1  10
HETATM   10  O   LIG     1      16.734  32.448  15.112  1.00  0.00    -0.360 OA
HETATM   11  H   LIG     1      16.831  33.457  15.126  1.00  0.00     0.217 HD
ENDBRANCH   1  10
TORSDOF 3
ENDMDL
MODEL 18
REMARK VINA RESULT:      -5.0     10.459     11.665
REMARK  3 active torsions:
REMARK  status: ('A' for Active; 'I' for Inactive)
REMARK    1  A    between atoms: O_1  and  C_2 
REMARK    2  A    between atoms: C_3  and  C_4 
REMARK    3  A    between atoms: C_4  and  O_5 
ROOT
HETATM    1  C   LIG     1      15.137  30.951  14.603  1.00  0.00     0.074 A 
HETATM    2  C   LIG     1      15.632  32.039  15.349  1.00  0.00    -0.002 A 
HETATM    3  C   LIG     1      14.926  32.476  16.482  1.00  0.00     0.012 A 
HETATM    4  C   LIG     1      13.758  31.820  16.882  1.00  0.00     0.001 A 
HETATM    5  C   LIG     1      13.279  30.732  16.150  1.00  0.00     0.003 A 
HETATM    6  C   LIG     1      13.964  30.299  15.013  1.00  0.00     0.037 A 
ENDROOT
BRANCH   2   7
HETATM    7  C   LIG     1      16.873  32.771  14.910  1.00  0.00     0.205 C 
BRANCH   7   8
HETATM    8  O   LIG     1      16.682  33.323  13.637  1.00  0.00    -0.396 OA
HETATM    9  H   LIG     1      17.500  33.847  13.429  1.00  0.00     0.209 HD
ENDBRANCH   7   8
ENDBRANCH   2   7
BRANCH   1  10
HETATM   10  O   LIG     1      15.810  30.522  13.458  1.00  0.00    -0.360 OA
HETATM   11  H   LIG     1      16.757  30.165  13.502  1.00  0.00     0.217 HD
ENDBRANCH   1  10
TORSDOF 3
ENDMDL
MODEL 19
REMARK VINA RESULT:      -5.0     10.709     11.930
REMARK  3 active torsions:
REMARK  status: ('A' for Active; 'I' for Inactive)
REMARK    1  A    between atoms: O_1  and  C_2 
REMARK    2  A    between atoms: C_3  and  C_4 
REMARK    3  A    between atoms: C_4  and  O_5 
ROOT
HETATM    1  C   LIG     1      15.325  31.358  14.885  1.00  0.00     0.074 A 
HETATM    2  C   LIG     1      14.218  30.500  15.033  1.00  0.00    -0.002 A 
HETATM    3  C   LIG     1      13.310  30.719  16.082  1.00  0.00     0.012 A 
HETATM    4  C   LIG     1      13.489  31.794  16.957  1.00  0.00     0.001 A 
HETATM    5  C   LIG     1      14.578  32.653  16.798  1.00  0.00     0.003 A 
HETATM    6  C   LIG     1      15.495  32.435  15.768  1.00  0.00     0.037 A 
ENDROOT
BRANCH   2   7
HETATM    7  C   LIG     1      14.031  29.319  14.115  1.00  0.00     0.205 C 
BRANCH   7   8
HETATM    8  O   LIG     1      12.680  28.953  14.069  1.00  0.00    -0.396 OA
HETATM    9  H   LIG     1      12.184  29.634  14.595  1.00  0.00     0.209 HD
ENDBRANCH   7   8
ENDBRANCH   2   7
BRANCH   1  10
HETATM   10  O   LIG     1      16.252  31.138  13.865  1.00  0.00    -0.360 OA
HETATM   11  H   LIG     1      16.755  31.903  13.432  1.00  0.00     0.217 HD
ENDBRANCH   1  10
TORSDOF 3
ENDMDL
MODEL 20
REMARK VINA RESULT:      -4.5      3.992      4.928
REMARK  3 active torsions:
REMARK  status: ('A' for Active; 'I' for Inactive)
REMARK    1  A    between atoms: O_1  and  C_2 
REMARK    2  A    between atoms: C_3  and  C_4 
REMARK    3  A    between atoms: C_4  and  O_5 
ROOT
HETATM    1  C   LIG     1      15.306  36.014  21.578  1.00  0.00     0.074 A 
HETATM    2  C   LIG     1      16.298  35.523  20.707  1.00  0.00    -0.002 A 
HETATM    3  C   LIG     1      17.527  36.196  20.613  1.00  0.00     0.012 A 
HETATM    4  C   LIG     1      17.775  37.326  21.396  1.00  0.00     0.001 A 
HETATM    5  C   LIG     1      16.796  37.801  22.271  1.00  0.00     0.003 A 
HETATM    6  C   LIG     1      15.564  37.149  22.361  1.00  0.00     0.037 A 
ENDROOT
BRANCH   2   7
HETATM    7  C   LIG     1      16.031  34.323  19.835  1.00  0.00     0.205 C 
BRANCH   7   8
HETATM    8  O   LIG     1      15.300  34.704  18.702  1.00  0.00    -0.396 OA
HETATM    9  H   LIG     1      15.933  34.685  17.937  1.00  0.00     0.209 HD
ENDBRANCH   7   8
ENDBRANCH   2   7
BRANCH   1  10
HETATM   10  O   LIG     1      14.068  35.375  21.663  1.00  0.00    -0.360 OA
HETATM   11  H   LIG     1      13.201  35.899  21.679  1.00  0.00     0.217 HD
ENDBRANCH   1  10
TORSDOF 3
ENDMDL
