REMARK  2 active torsions:
REMARK  status: ('A' for Active; 'I' for Inactive)
REMARK    1  A    between atoms: C_2  and  C_3 
REMARK    2  A    between atoms: C_8  and  O_9 
ROOT
HETATM    1  C   LIG     1      -0.130  -0.128   0.410  1.00  0.00    -0.025 A 
HETATM    2  C   LIG     1       0.623  -1.293   0.638  1.00  0.00     0.010 A 
HETATM    3  C   LIG     1       1.964  -1.356   0.251  1.00  0.00     0.001 A 
HETATM    4  C   LIG     1       2.567  -0.258  -0.365  1.00  0.00     0.003 A 
HETATM    5  C   LIG     1       1.832   0.907  -0.594  1.00  0.00     0.037 A 
HETATM    6  C   LIG     1       0.485   0.982  -0.207  1.00  0.00     0.071 A 
ENDROOT
BRANCH   1   7
HETATM    7  C   LIG     1      -1.578  -0.075   0.832  1.00  0.00     0.037 C 
HETATM    8  C   LIG     1      -2.507  -0.202  -0.372  1.00  0.00     0.010 C 
ENDBRANCH   1   7
BRANCH   6   9
HETATM    9  O   LIG     1      -0.238   2.153  -0.428  1.00  0.00    -0.360 OA
HETATM   10  H   LIG     1       0.183   2.963  -0.868  1.00  0.00     0.217 HD
ENDBRANCH   6   9
TORSDOF 2
