MODEL 1
REMARK VINA RESULT:      -6.3      0.000      0.000
REMARK  2 active torsions:
REMARK  status: ('A' for Active; 'I' for Inactive)
REMARK    1  A    between atoms: C_2  and  C_3 
REMARK    2  A    between atoms: C_4  and  O_5 
ROOT
HETATM    1  C   LIG     1      16.998  36.806  24.284  1.00  0.00     0.035 A 
HETATM    2  C   LIG     1      17.441  37.566  25.398  1.00  0.00     0.078 A 
HETATM    3  C   LIG     1      18.007  36.911  26.500  1.00  0.00     0.037 A 
HETATM    4  C   LIG     1      18.180  35.527  26.494  1.00  0.00     0.003 A 
HETATM    5  C   LIG     1      17.788  34.780  25.383  1.00  0.00     0.001 A 
HETATM    6  C   LIG     1      17.202  35.414  24.285  1.00  0.00     0.017 A 
ENDROOT
BRANCH   1   7
HETATM    7  C   LIG     1      16.298  37.392  23.122  1.00  0.00     0.272 C 
HETATM    8  O   LIG     1      15.630  38.454  23.216  1.00  0.00    -0.301 OA
ENDBRANCH   1   7
BRANCH   2   9
HETATM    9  O   LIG     1      17.373  38.960  25.441  1.00  0.00    -0.360 OA
HETATM   10  H   LIG     1      16.783  39.512  24.834  1.00  0.00     0.217 HD
ENDBRANCH   2   9
TORSDOF 2
ENDMDL
MODEL 2
REMARK VINA RESULT:      -6.0      1.264      2.223
REMARK  2 active torsions:
REMARK  status: ('A' for Active; 'I' for Inactive)
REMARK    1  A    between atoms: C_2  and  C_3 
REMARK    2  A    between atoms: C_4  and  O_5 
ROOT
HETATM    1  C   LIG     1      17.533  37.259  24.694  1.00  0.00     0.035 A 
HETATM    2  C   LIG     1      17.193  35.987  24.159  1.00  0.00     0.078 A 
HETATM    3  C   LIG     1      17.432  34.834  24.917  1.00  0.00     0.037 A 
HETATM    4  C   LIG     1      17.956  34.925  26.207  1.00  0.00     0.003 A 
HETATM    5  C   LIG     1      18.248  36.173  26.754  1.00  0.00     0.001 A 
HETATM    6  C   LIG     1      18.037  37.333  26.004  1.00  0.00     0.017 A 
ENDROOT
BRANCH   1   7
HETATM    7  C   LIG     1      17.414  38.521  23.935  1.00  0.00     0.272 C 
HETATM    8  O   LIG     1      16.365  38.822  23.307  1.00  0.00    -0.301 OA
ENDBRANCH   1   7
BRANCH   2   9
HETATM    9  O   LIG     1      16.593  35.826  22.909  1.00  0.00    -0.360 OA
HETATM   10  H   LIG     1      16.385  34.925  22.499  1.00  0.00     0.217 HD
ENDBRANCH   2   9
TORSDOF 2
ENDMDL
MODEL 3
REMARK VINA RESULT:      -5.8      3.801      4.817
REMARK  2 active torsions:
REMARK  status: ('A' for Active; 'I' for Inactive)
REMARK    1  A    between atoms: C_2  and  C_3 
REMARK    2  A    between atoms: C_4  and  O_5 
ROOT
HETATM    1  C   LIG     1      18.792  37.943  20.264  1.00  0.00     0.035 A 
HETATM    2  C   LIG     1      18.315  38.727  21.349  1.00  0.00     0.078 A 
HETATM    3  C   LIG     1      17.327  38.206  22.195  1.00  0.00     0.037 A 
HETATM    4  C   LIG     1      16.840  36.912  22.010  1.00  0.00     0.003 A 
HETATM    5  C   LIG     1      17.337  36.121  20.974  1.00  0.00     0.001 A 
HETATM    6  C   LIG     1      18.307  36.632  20.108  1.00  0.00     0.017 A 
ENDROOT
BRANCH   1   7
HETATM    7  C   LIG     1      19.755  38.439  19.260  1.00  0.00     0.272 C 
HETATM    8  O   LIG     1      20.360  39.533  19.405  1.00  0.00    -0.301 OA
ENDBRANCH   1   7
BRANCH   2   9
HETATM    9  O   LIG     1      18.813  39.998  21.643  1.00  0.00    -0.360 OA
HETATM   10  H   LIG     1      19.306  40.224  22.496  1.00  0.00     0.217 HD
ENDBRANCH   2   9
TORSDOF 2
ENDMDL
MODEL 4
REMARK VINA RESULT:      -5.7      3.546      5.052
REMARK  2 active torsions:
REMARK  status: ('A' for Active; 'I' for Inactive)
REMARK    1  A    between atoms: C_2  and  C_3 
REMARK    2  A    between atoms: C_4  and  O_5 
ROOT
HETATM    1  C   LIG     1      17.814  38.476  21.647  1.00  0.00     0.035 A 
HETATM    2  C   LIG     1      17.710  37.155  21.136  1.00  0.00     0.078 A 
HETATM    3  C   LIG     1      18.483  36.779  20.030  1.00  0.00     0.037 A 
HETATM    4  C   LIG     1      19.385  37.675  19.454  1.00  0.00     0.003 A 
HETATM    5  C   LIG     1      19.525  38.959  19.980  1.00  0.00     0.001 A 
HETATM    6  C   LIG     1      18.746  39.358  21.069  1.00  0.00     0.017 A 
ENDROOT
BRANCH   1   7
HETATM    7  C   LIG     1      16.970  38.997  22.742  1.00  0.00     0.272 C 
HETATM    8  O   LIG     1      15.766  38.655  22.872  1.00  0.00    -0.301 OA
ENDBRANCH   1   7
BRANCH   2   9
HETATM    9  O   LIG     1      16.889  36.182  21.710  1.00  0.00    -0.360 OA
HETATM   10  H   LIG     1      17.154  35.626  22.511  1.00  0.00     0.217 HD
ENDBRANCH   2   9
TORSDOF 2
ENDMDL
MODEL 5
REMARK VINA RESULT:      -5.7      1.364      3.113
REMARK  2 active torsions:
REMARK  status: ('A' for Active; 'I' for Inactive)
REMARK    1  A    between atoms: C_2  and  C_3 
REMARK    2  A    between atoms: C_4  and  O_5 
ROOT
HETATM    1  C   LIG     1      17.424  36.089  24.986  1.00  0.00     0.035 A 
HETATM    2  C   LIG     1      17.185  37.442  24.626  1.00  0.00     0.078 A 
HETATM    3  C   LIG     1      16.824  37.752  23.308  1.00  0.00     0.037 A 
HETATM    4  C   LIG     1      16.653  36.742  22.360  1.00  0.00     0.003 A 
HETATM    5  C   LIG     1      16.841  35.409  22.720  1.00  0.00     0.001 A 
HETATM    6  C   LIG     1      17.223  35.083  24.023  1.00  0.00     0.017 A 
ENDROOT
BRANCH   1   7
HETATM    7  C   LIG     1      17.906  35.672  26.319  1.00  0.00     0.272 C 
HETATM    8  O   LIG     1      18.612  36.428  27.036  1.00  0.00    -0.301 OA
ENDBRANCH   1   7
BRANCH   2   9
HETATM    9  O   LIG     1      17.259  38.495  25.540  1.00  0.00    -0.360 OA
HETATM   10  H   LIG     1      17.122  39.465  25.290  1.00  0.00     0.217 HD
ENDBRANCH   2   9
TORSDOF 2
ENDMDL
MODEL 6
REMARK VINA RESULT:      -5.5      3.372      4.792
REMARK  2 active torsions:
REMARK  status: ('A' for Active; 'I' for Inactive)
REMARK    1  A    between atoms: C_2  and  C_3 
REMARK    2  A    between atoms: C_4  and  O_5 
ROOT
HETATM    1  C   LIG     1      17.746  37.261  21.198  1.00  0.00     0.035 A 
HETATM    2  C   LIG     1      17.922  38.611  21.603  1.00  0.00     0.078 A 
HETATM    3  C   LIG     1      18.850  39.417  20.931  1.00  0.00     0.037 A 
HETATM    4  C   LIG     1      19.569  38.921  19.843  1.00  0.00     0.003 A 
HETATM    5  C   LIG     1      19.366  37.610  19.412  1.00  0.00     0.001 A 
HETATM    6  C   LIG     1      18.461  36.785  20.084  1.00  0.00     0.017 A 
ENDROOT
BRANCH   1   7
HETATM    7  C   LIG     1      16.869  36.305  21.905  1.00  0.00     0.272 C 
HETATM    8  O   LIG     1      16.884  36.191  23.158  1.00  0.00    -0.301 OA
ENDBRANCH   1   7
BRANCH   2   9
HETATM    9  O   LIG     1      17.181  39.198  22.631  1.00  0.00    -0.360 OA
HETATM   10  H   LIG     1      17.277  40.165  22.909  1.00  0.00     0.217 HD
ENDBRANCH   2   9
TORSDOF 2
ENDMDL
MODEL 7
REMARK VINA RESULT:      -5.4      1.747      3.347
REMARK  2 active torsions:
REMARK  status: ('A' for Active; 'I' for Inactive)
REMARK    1  A    between atoms: C_2  and  C_3 
REMARK    2  A    between atoms: C_4  and  O_5 
ROOT
HETATM    1  C   LIG     1      17.153  36.862  23.571  1.00  0.00     0.035 A 
HETATM    2  C   LIG     1      17.396  37.789  22.523  1.00  0.00     0.078 A 
HETATM    3  C   LIG     1      17.506  37.328  21.205  1.00  0.00     0.037 A 
HETATM    4  C   LIG     1      17.334  35.976  20.907  1.00  0.00     0.003 A 
HETATM    5  C   LIG     1      17.049  35.068  21.926  1.00  0.00     0.001 A 
HETATM    6  C   LIG     1      16.958  35.507  23.249  1.00  0.00     0.017 A 
ENDROOT
BRANCH   1   7
HETATM    7  C   LIG     1      17.122  37.236  25.000  1.00  0.00     0.272 C 
HETATM    8  O   LIG     1      16.815  38.397  25.377  1.00  0.00    -0.301 OA
ENDBRANCH   1   7
BRANCH   2   9
HETATM    9  O   LIG     1      17.500  39.165  22.737  1.00  0.00    -0.360 OA
HETATM   10  H   LIG     1      17.247  39.861  22.047  1.00  0.00     0.217 HD
ENDBRANCH   2   9
TORSDOF 2
ENDMDL
MODEL 8
REMARK VINA RESULT:      -5.3      9.584     10.994
REMARK  2 active torsions:
REMARK  status: ('A' for Active; 'I' for Inactive)
REMARK    1  A    between atoms: C_2  and  C_3 
REMARK    2  A    between atoms: C_4  and  O_5 
ROOT
HETATM    1  C   LIG     1      14.889  32.326  16.133  1.00  0.00     0.035 A 
HETATM    2  C   LIG     1      13.772  31.490  16.397  1.00  0.00     0.078 A 
HETATM    3  C   LIG     1      13.519  30.392  15.564  1.00  0.00     0.037 A 
HETATM    4  C   LIG     1      14.379  30.086  14.509  1.00  0.00     0.003 A 
HETATM    5  C   LIG     1      15.503  30.876  14.274  1.00  0.00     0.001 A 
HETATM    6  C   LIG     1      15.758  31.988  15.080  1.00  0.00     0.017 A 
ENDROOT
BRANCH   1   7
HETATM    7  C   LIG     1      15.181  33.561  16.890  1.00  0.00     0.272 C 
HETATM    8  O   LIG     1      15.817  34.518  16.378  1.00  0.00    -0.301 OA
ENDBRANCH   1   7
BRANCH   2   9
HETATM    9  O   LIG     1      12.915  31.688  17.482  1.00  0.00    -0.360 OA
HETATM   10  H   LIG     1      11.912  31.779  17.395  1.00  0.00     0.217 HD
ENDBRANCH   2   9
TORSDOF 2
ENDMDL
MODEL 9
REMARK VINA RESULT:      -5.3      9.559     10.618
REMARK  2 active torsions:
REMARK  status: ('A' for Active; 'I' for Inactive)
REMARK    1  A    between atoms: C_2  and  C_3 
REMARK    2  A    between atoms: C_4  and  O_5 
ROOT
HETATM    1  C   LIG     1      15.397  32.190  15.632  1.00  0.00     0.035 A 
HETATM    2  C   LIG     1      14.526  32.534  16.700  1.00  0.00     0.078 A 
HETATM    3  C   LIG     1      13.359  31.786  16.907  1.00  0.00     0.037 A 
HETATM    4  C   LIG     1      13.069  30.682  16.105  1.00  0.00     0.003 A 
HETATM    5  C   LIG     1      13.944  30.313  15.084  1.00  0.00     0.001 A 
HETATM    6  C   LIG     1      15.101  31.060  14.849  1.00  0.00     0.017 A 
ENDROOT
BRANCH   1   7
HETATM    7  C   LIG     1      16.595  32.976  15.271  1.00  0.00     0.272 C 
HETATM    8  O   LIG     1      16.719  34.185  15.598  1.00  0.00    -0.301 OA
ENDBRANCH   1   7
BRANCH   2   9
HETATM    9  O   LIG     1      14.792  33.575  17.592  1.00  0.00    -0.360 OA
HETATM   10  H   LIG     1      14.912  33.444  18.587  1.00  0.00     0.217 HD
ENDBRANCH   2   9
TORSDOF 2
ENDMDL
MODEL 10
REMARK VINA RESULT:      -5.2      9.958     11.332
REMARK  2 active torsions:
REMARK  status: ('A' for Active; 'I' for Inactive)
REMARK    1  A    between atoms: C_2  and  C_3 
REMARK    2  A    between atoms: C_4  and  O_5 
ROOT
HETATM    1  C   LIG     1      14.963  32.146  15.918  1.00  0.00     0.035 A 
HETATM    2  C   LIG     1      15.762  31.661  14.849  1.00  0.00     0.078 A 
HETATM    3  C   LIG     1      15.366  30.507  14.160  1.00  0.00     0.037 A 
HETATM    4  C   LIG     1      14.173  29.859  14.482  1.00  0.00     0.003 A 
HETATM    5  C   LIG     1      13.362  30.358  15.500  1.00  0.00     0.001 A 
HETATM    6  C   LIG     1      13.753  31.494  16.213  1.00  0.00     0.017 A 
ENDROOT
BRANCH   1   7
HETATM    7  C   LIG     1      15.347  33.291  16.769  1.00  0.00     0.272 C 
HETATM    8  O   LIG     1      15.823  34.350  16.283  1.00  0.00    -0.301 OA
ENDBRANCH   1   7
BRANCH   2   9
HETATM    9  O   LIG     1      16.926  32.302  14.419  1.00  0.00    -0.360 OA
HETATM   10  H   LIG     1      17.382  32.106  13.539  1.00  0.00     0.217 HD
ENDBRANCH   2   9
TORSDOF 2
ENDMDL
MODEL 11
REMARK VINA RESULT:      -5.2      1.896      3.541
REMARK  2 active torsions:
REMARK  status: ('A' for Active; 'I' for Inactive)
REMARK    1  A    between atoms: C_2  and  C_3 
REMARK    2  A    between atoms: C_4  and  O_5 
ROOT
HETATM    1  C   LIG     1      17.184  37.001  23.979  1.00  0.00     0.035 A 
HETATM    2  C   LIG     1      17.134  35.588  23.849  1.00  0.00     0.078 A 
HETATM    3  C   LIG     1      17.067  35.014  22.573  1.00  0.00     0.037 A 
HETATM    4  C   LIG     1      17.096  35.813  21.430  1.00  0.00     0.003 A 
HETATM    5  C   LIG     1      17.192  37.199  21.550  1.00  0.00     0.001 A 
HETATM    6  C   LIG     1      17.237  37.790  22.815  1.00  0.00     0.017 A 
ENDROOT
BRANCH   1   7
HETATM    7  C   LIG     1      17.154  37.703  25.278  1.00  0.00     0.272 C 
HETATM    8  O   LIG     1      17.111  38.958  25.354  1.00  0.00    -0.301 OA
ENDBRANCH   1   7
BRANCH   2   9
HETATM    9  O   LIG     1      17.182  34.723  24.944  1.00  0.00    -0.360 OA
HETATM   10  H   LIG     1      17.503  33.766  24.889  1.00  0.00     0.217 HD
ENDBRANCH   2   9
TORSDOF 2
ENDMDL
MODEL 12
REMARK VINA RESULT:      -5.2     10.183     11.483
REMARK  2 active torsions:
REMARK  status: ('A' for Active; 'I' for Inactive)
REMARK    1  A    between atoms: C_2  and  C_3 
REMARK    2  A    between atoms: C_4  and  O_5 
ROOT
HETATM    1  C   LIG     1      15.519  32.157  15.494  1.00  0.00     0.035 A 
HETATM    2  C   LIG     1      15.170  31.058  14.665  1.00  0.00     0.078 A 
HETATM    3  C   LIG     1      14.038  30.293  14.973  1.00  0.00     0.037 A 
HETATM    4  C   LIG     1      13.225  30.628  16.056  1.00  0.00     0.003 A 
HETATM    5  C   LIG     1      13.537  31.734  16.846  1.00  0.00     0.001 A 
HETATM    6  C   LIG     1      14.675  32.495  16.567  1.00  0.00     0.017 A 
ENDROOT
BRANCH   1   7
HETATM    7  C   LIG     1      16.746  32.960  15.312  1.00  0.00     0.272 C 
HETATM    8  O   LIG     1      17.883  32.426  15.232  1.00  0.00    -0.301 OA
ENDBRANCH   1   7
BRANCH   2   9
HETATM    9  O   LIG     1      15.891  30.713  13.520  1.00  0.00    -0.360 OA
HETATM   10  H   LIG     1      15.492  30.218  12.734  1.00  0.00     0.217 HD
ENDBRANCH   2   9
TORSDOF 2
ENDMDL
MODEL 13
REMARK VINA RESULT:      -5.1     10.334     11.616
REMARK  2 active torsions:
REMARK  status: ('A' for Active; 'I' for Inactive)
REMARK    1  A    between atoms: C_2  and  C_3 
REMARK    2  A    between atoms: C_4  and  O_5 
ROOT
HETATM    1  C   LIG     1      14.368  30.692  15.189  1.00  0.00     0.035 A 
HETATM    2  C   LIG     1      13.543  30.970  16.311  1.00  0.00     0.078 A 
HETATM    3  C   LIG     1      13.875  32.029  17.166  1.00  0.00     0.037 A 
HETATM    4  C   LIG     1      14.979  32.840  16.900  1.00  0.00     0.003 A 
HETATM    5  C   LIG     1      15.766  32.600  15.774  1.00  0.00     0.001 A 
HETATM    6  C   LIG     1      15.463  31.534  14.923  1.00  0.00     0.017 A 
ENDROOT
BRANCH   1   7
HETATM    7  C   LIG     1      14.159  29.539  14.289  1.00  0.00     0.272 C 
HETATM    8  O   LIG     1      13.037  28.982  14.173  1.00  0.00    -0.301 OA
ENDBRANCH   1   7
BRANCH   2   9
HETATM    9  O   LIG     1      12.379  30.253  16.594  1.00  0.00    -0.360 OA
HETATM   10  H   LIG     1      11.694  29.997  15.896  1.00  0.00     0.217 HD
ENDBRANCH   2   9
TORSDOF 2
ENDMDL
MODEL 14
REMARK VINA RESULT:      -5.1      9.886     11.061
REMARK  2 active torsions:
REMARK  status: ('A' for Active; 'I' for Inactive)
REMARK    1  A    between atoms: C_2  and  C_3 
REMARK    2  A    between atoms: C_4  and  O_5 
ROOT
HETATM    1  C   LIG     1      15.178  31.444  14.933  1.00  0.00     0.035 A 
HETATM    2  C   LIG     1      15.690  32.394  15.856  1.00  0.00     0.078 A 
HETATM    3  C   LIG     1      15.042  32.583  17.084  1.00  0.00     0.037 A 
HETATM    4  C   LIG     1      13.928  31.816  17.427  1.00  0.00     0.003 A 
HETATM    5  C   LIG     1      13.449  30.850  16.544  1.00  0.00     0.001 A 
HETATM    6  C   LIG     1      14.068  30.663  15.306  1.00  0.00     0.017 A 
ENDROOT
BRANCH   1   7
HETATM    7  C   LIG     1      15.728  31.244  13.577  1.00  0.00     0.272 C 
HETATM    8  O   LIG     1      16.695  31.925  13.146  1.00  0.00    -0.301 OA
ENDBRANCH   1   7
BRANCH   2   9
HETATM    9  O   LIG     1      16.846  33.139  15.614  1.00  0.00    -0.360 OA
HETATM   10  H   LIG     1      16.897  33.892  14.941  1.00  0.00     0.217 HD
ENDBRANCH   2   9
TORSDOF 2
ENDMDL
MODEL 15
REMARK VINA RESULT:      -4.9      9.887     11.201
REMARK  2 active torsions:
REMARK  status: ('A' for Active; 'I' for Inactive)
REMARK    1  A    between atoms: C_2  and  C_3 
REMARK    2  A    between atoms: C_4  and  O_5 
ROOT
HETATM    1  C   LIG     1      14.373  31.450  16.067  1.00  0.00     0.035 A 
HETATM    2  C   LIG     1      15.435  32.321  15.703  1.00  0.00     0.078 A 
HETATM    3  C   LIG     1      16.117  32.112  14.498  1.00  0.00     0.037 A 
HETATM    4  C   LIG     1      15.736  31.086  13.632  1.00  0.00     0.003 A 
HETATM    5  C   LIG     1      14.665  30.257  13.963  1.00  0.00     0.001 A 
HETATM    6  C   LIG     1      13.987  30.437  15.171  1.00  0.00     0.017 A 
ENDROOT
BRANCH   1   7
HETATM    7  C   LIG     1      13.661  31.526  17.359  1.00  0.00     0.272 C 
HETATM    8  O   LIG     1      14.278  31.559  18.456  1.00  0.00    -0.301 OA
ENDBRANCH   1   7
BRANCH   2   9
HETATM    9  O   LIG     1      15.819  33.415  16.481  1.00  0.00    -0.360 OA
HETATM   10  H   LIG     1      15.533  34.366  16.291  1.00  0.00     0.217 HD
ENDBRANCH   2   9
TORSDOF 2
ENDMDL
MODEL 16
REMARK VINA RESULT:      -4.9      2.183      3.078
REMARK  2 active torsions:
REMARK  status: ('A' for Active; 'I' for Inactive)
REMARK    1  A    between atoms: C_2  and  C_3 
REMARK    2  A    between atoms: C_4  and  O_5 
ROOT
HETATM    1  C   LIG     1      17.500  37.891  22.197  1.00  0.00     0.035 A 
HETATM    2  C   LIG     1      17.165  37.529  23.528  1.00  0.00     0.078 A 
HETATM    3  C   LIG     1      16.842  36.198  23.821  1.00  0.00     0.037 A 
HETATM    4  C   LIG     1      16.890  35.218  22.828  1.00  0.00     0.003 A 
HETATM    5  C   LIG     1      17.263  35.560  21.529  1.00  0.00     0.001 A 
HETATM    6  C   LIG     1      17.567  36.886  21.214  1.00  0.00     0.017 A 
ENDROOT
BRANCH   1   7
HETATM    7  C   LIG     1      17.757  39.282  21.769  1.00  0.00     0.272 C 
HETATM    8  O   LIG     1      18.706  39.574  20.997  1.00  0.00    -0.301 OA
ENDBRANCH   1   7
BRANCH   2   9
HETATM    9  O   LIG     1      17.174  38.439  24.587  1.00  0.00    -0.360 OA
HETATM   10  H   LIG     1      17.762  38.343  25.405  1.00  0.00     0.217 HD
ENDBRANCH   2   9
TORSDOF 2
ENDMDL
MODEL 17
REMARK VINA RESULT:      -4.8     10.399     11.655
REMARK  2 active torsions:
REMARK  status: ('A' for Active; 'I' for Inactive)
REMARK    1  A    between atoms: C_2  and  C_3 
REMARK    2  A    between atoms: C_4  and  O_5 
ROOT
HETATM    1  C   LIG     1      14.412  30.690  15.174  1.00  0.00     0.035 A 
HETATM    2  C   LIG     1      15.489  31.609  15.056  1.00  0.00     0.078 A 
HETATM    3  C   LIG     1      15.556  32.709  15.922  1.00  0.00     0.037 A 
HETATM    4  C   LIG     1      14.603  32.884  16.926  1.00  0.00     0.003 A 
HETATM    5  C   LIG     1      13.570  31.960  17.076  1.00  0.00     0.001 A 
HETATM    6  C   LIG     1      13.474  30.870  16.208  1.00  0.00     0.017 A 
ENDROOT
BRANCH   1   7
HETATM    7  C   LIG     1      14.198  29.560  14.247  1.00  0.00     0.272 C 
HETATM    8  O   LIG     1      13.091  28.967  14.169  1.00  0.00    -0.301 OA
ENDBRANCH   1   7
BRANCH   2   9
HETATM    9  O   LIG     1      16.520  31.454  14.128  1.00  0.00    -0.360 OA
HETATM   10  H   LIG     1      17.457  31.810  14.266  1.00  0.00     0.217 HD
ENDBRANCH   2   9
TORSDOF 2
ENDMDL
MODEL 18
REMARK VINA RESULT:      -4.7     10.734     12.094
REMARK  2 active torsions:
REMARK  status: ('A' for Active; 'I' for Inactive)
REMARK    1  A    between atoms: C_2  and  C_3 
REMARK    2  A    between atoms: C_4  and  O_5 
ROOT
HETATM    1  C   LIG     1      14.579  31.272  15.727  1.00  0.00     0.035 A 
HETATM    2  C   LIG     1      14.494  30.470  14.558  1.00  0.00     0.078 A 
HETATM    3  C   LIG     1      15.302  30.772  13.454  1.00  0.00     0.037 A 
HETATM    4  C   LIG     1      16.219  31.822  13.509  1.00  0.00     0.003 A 
HETATM    5  C   LIG     1      16.339  32.584  14.670  1.00  0.00     0.001 A 
HETATM    6  C   LIG     1      15.526  32.311  15.773  1.00  0.00     0.017 A 
ENDROOT
BRANCH   1   7
HETATM    7  C   LIG     1      13.700  31.097  16.902  1.00  0.00     0.272 C 
HETATM    8  O   LIG     1      12.496  30.751  16.785  1.00  0.00    -0.301 OA
ENDBRANCH   1   7
BRANCH   2   9
HETATM    9  O   LIG     1      13.658  29.356  14.461  1.00  0.00    -0.360 OA
HETATM   10  H   LIG     1      12.711  29.395  14.109  1.00  0.00     0.217 HD
ENDBRANCH   2   9
TORSDOF 2
ENDMDL
MODEL 19
REMARK VINA RESULT:      -4.0     12.085     13.374
REMARK  2 active torsions:
REMARK  status: ('A' for Active; 'I' for Inactive)
REMARK    1  A    between atoms: C_2  and  C_3 
REMARK    2  A    between atoms: C_4  and  O_5 
ROOT
HETATM    1  C   LIG     1      14.723  29.911  14.481  1.00  0.00     0.035 A 
HETATM    2  C   LIG     1      13.362  29.524  14.599  1.00  0.00     0.078 A 
HETATM    3  C   LIG     1      12.954  28.277  14.109  1.00  0.00     0.037 A 
HETATM    4  C   LIG     1      13.878  27.394  13.551  1.00  0.00     0.003 A 
HETATM    5  C   LIG     1      15.224  27.750  13.475  1.00  0.00     0.001 A 
HETATM    6  C   LIG     1      15.645  28.999  13.937  1.00  0.00     0.017 A 
ENDROOT
BRANCH   1   7
HETATM    7  C   LIG     1      15.230  31.242  14.873  1.00  0.00     0.272 C 
HETATM    8  O   LIG     1      14.841  31.818  15.923  1.00  0.00    -0.301 OA
ENDBRANCH   1   7
BRANCH   2   9
HETATM    9  O   LIG     1      12.397  30.322  15.218  1.00  0.00    -0.360 OA
HETATM   10  H   LIG     1      11.421  30.068  15.289  1.00  0.00     0.217 HD
ENDBRANCH   2   9
TORSDOF 2
ENDMDL
