REMARK  0 active torsions:
REMARK  status: ('A' for Active; 'I' for Inactive)
ROOT
HETATM    1 CL   LIG     1      -1.837   2.864   0.100  1.00  0.00    -0.083 Cl
HETATM    2  C   LIG     1      -1.446   1.147   0.026  1.00  0.00     0.045 A 
HETATM    3  C   LIG     1      -0.114   0.675   0.030  1.00  0.00    -0.004 A 
HETATM    4  C   LIG     1       0.985   1.554   0.093  1.00  0.00     0.014 A 
HETATM    5  C   LIG     1       2.291   1.056   0.095  1.00  0.00     0.001 A 
HETATM    6  C   LIG     1       2.520  -0.320   0.034  1.00  0.00     0.001 A 
HETATM    7  C   LIG     1       1.445  -1.208  -0.029  1.00  0.00     0.012 A 
HETATM    8  C   LIG     1       0.127  -0.724  -0.032  1.00  0.00    -0.024 A 
HETATM    9  C   LIG     1      -0.952  -1.617  -0.095  1.00  0.00     0.012 A 
HETATM   10  C   LIG     1      -2.262  -1.136  -0.098  1.00  0.00     0.003 A 
HETATM   11  C   LIG     1      -2.507   0.236  -0.038  1.00  0.00     0.024 A 
ENDROOT
TORSDOF 0
