REMARK  0 active torsions:
REMARK  status: ('A' for Active; 'I' for Inactive)
ROOT
HETATM    1  C   LIG     1       2.615  -0.576   0.090  1.00  0.00     0.049 C 
HETATM    2  C   LIG     1       1.372   0.277   0.074  1.00  0.00    -0.051 A 
HETATM    3  C   LIG     1       0.073  -0.291  -0.010  1.00  0.00    -0.020 A 
HETATM    4  C   LIG     1      -0.129  -1.687  -0.083  1.00  0.00     0.013 A 
HETATM    5  C   LIG     1      -1.421  -2.213  -0.165  1.00  0.00     0.001 A 
HETATM    6  C   LIG     1      -2.528  -1.365  -0.176  1.00  0.00     0.001 A 
HETATM    7  C   LIG     1      -2.353   0.018  -0.104  1.00  0.00     0.012 A 
HETATM    8  C   LIG     1      -1.062   0.564  -0.021  1.00  0.00    -0.025 A 
HETATM    9  C   LIG     1      -0.893   1.953   0.050  1.00  0.00     0.012 A 
HETATM   10  C   LIG     1       0.385   2.502   0.132  1.00  0.00     0.001 A 
HETATM   11  C   LIG     1       1.508   1.674   0.144  1.00  0.00     0.007 A 
ENDROOT
TORSDOF 0
