REMARK  0 active torsions:
REMARK  status: ('A' for Active; 'I' for Inactive)
ROOT
HETATM    1 BR   LIG     1       1.827   3.029  -0.307  1.00  0.00    -0.050 Br
HETATM    2  C   LIG     1       1.422   1.163  -0.101  1.00  0.00     0.022 A 
HETATM    3  C   LIG     1       2.499   0.279   0.028  1.00  0.00     0.020 A 
HETATM    4  C   LIG     1       2.280  -1.091   0.182  1.00  0.00     0.002 A 
HETATM    5  C   LIG     1       0.980  -1.596   0.209  1.00  0.00     0.012 A 
HETATM    6  C   LIG     1      -0.116  -0.730   0.082  1.00  0.00    -0.025 A 
HETATM    7  C   LIG     1      -1.424  -1.239   0.109  1.00  0.00     0.012 A 
HETATM    8  C   LIG     1      -2.516  -0.379  -0.017  1.00  0.00     0.001 A 
HETATM    9  C   LIG     1      -2.313   0.993  -0.171  1.00  0.00     0.001 A 
HETATM   10  C   LIG     1      -1.017   1.516  -0.201  1.00  0.00     0.013 A 
HETATM   11  C   LIG     1       0.098   0.666  -0.075  1.00  0.00    -0.009 A 
ENDROOT
TORSDOF 0
