MODEL 1
REMARK VINA RESULT:      -8.4      0.000      0.000
REMARK  0 active torsions:
REMARK  status: ('A' for Active; 'I' for Inactive)
ROOT
HETATM    1  C   LIG     1      16.407  34.906  21.998  1.00  0.00     0.049 C 
HETATM    2  C   LIG     1      16.797  36.149  22.757  1.00  0.00    -0.051 A 
HETATM    3  C   LIG     1      17.261  36.095  24.098  1.00  0.00    -0.020 A 
HETATM    4  C   LIG     1      17.384  34.874  24.798  1.00  0.00     0.013 A 
HETATM    5  C   LIG     1      17.845  34.856  26.117  1.00  0.00     0.001 A 
HETATM    6  C   LIG     1      18.188  36.045  26.760  1.00  0.00     0.001 A 
HETATM    7  C   LIG     1      18.075  37.264  26.089  1.00  0.00     0.012 A 
HETATM    8  C   LIG     1      17.614  37.300  24.763  1.00  0.00    -0.025 A 
HETATM    9  C   LIG     1      17.502  38.527  24.095  1.00  0.00     0.012 A 
HETATM   10  C   LIG     1      17.046  38.571  22.779  1.00  0.00     0.001 A 
HETATM   11  C   LIG     1      16.696  37.395  22.115  1.00  0.00     0.007 A 
ENDROOT
TORSDOF 0
ENDMDL
MODEL 2
REMARK VINA RESULT:      -8.0      0.791      2.551
REMARK  0 active torsions:
REMARK  status: ('A' for Active; 'I' for Inactive)
ROOT
HETATM    1  C   LIG     1      17.169  39.159  22.763  1.00  0.00     0.049 C 
HETATM    2  C   LIG     1      17.083  37.658  22.870  1.00  0.00    -0.051 A 
HETATM    3  C   LIG     1      17.388  36.972  24.076  1.00  0.00    -0.020 A 
HETATM    4  C   LIG     1      17.789  37.657  25.244  1.00  0.00     0.013 A 
HETATM    5  C   LIG     1      18.082  36.951  26.414  1.00  0.00     0.001 A 
HETATM    6  C   LIG     1      17.982  35.561  26.442  1.00  0.00     0.001 A 
HETATM    7  C   LIG     1      17.586  34.862  25.300  1.00  0.00     0.012 A 
HETATM    8  C   LIG     1      17.288  35.555  24.116  1.00  0.00    -0.025 A 
HETATM    9  C   LIG     1      16.892  34.848  22.973  1.00  0.00     0.012 A 
HETATM   10  C   LIG     1      16.595  35.529  21.794  1.00  0.00     0.001 A 
HETATM   11  C   LIG     1      16.689  36.920  21.741  1.00  0.00     0.007 A 
ENDROOT
TORSDOF 0
ENDMDL
MODEL 3
REMARK VINA RESULT:      -7.9      2.800      4.348
REMARK  0 active torsions:
REMARK  status: ('A' for Active; 'I' for Inactive)
ROOT
HETATM    1  C   LIG     1      16.613  34.971  21.156  1.00  0.00     0.049 C 
HETATM    2  C   LIG     1      16.812  36.406  21.571  1.00  0.00    -0.051 A 
HETATM    3  C   LIG     1      17.803  37.230  20.974  1.00  0.00    -0.020 A 
HETATM    4  C   LIG     1      18.658  36.752  19.957  1.00  0.00     0.013 A 
HETATM    5  C   LIG     1      19.623  37.589  19.391  1.00  0.00     0.001 A 
HETATM    6  C   LIG     1      19.754  38.909  19.824  1.00  0.00     0.001 A 
HETATM    7  C   LIG     1      18.919  39.403  20.827  1.00  0.00     0.012 A 
HETATM    8  C   LIG     1      17.944  38.576  21.407  1.00  0.00    -0.025 A 
HETATM    9  C   LIG     1      17.110  39.078  22.415  1.00  0.00     0.012 A 
HETATM   10  C   LIG     1      16.140  38.263  22.995  1.00  0.00     0.001 A 
HETATM   11  C   LIG     1      15.991  36.940  22.579  1.00  0.00     0.007 A 
ENDROOT
TORSDOF 0
ENDMDL
MODEL 4
REMARK VINA RESULT:      -7.7      0.933      3.387
REMARK  0 active torsions:
REMARK  status: ('A' for Active; 'I' for Inactive)
ROOT
HETATM    1  C   LIG     1      17.708  34.726  26.087  1.00  0.00     0.049 C 
HETATM    2  C   LIG     1      17.533  36.027  25.347  1.00  0.00    -0.051 A 
HETATM    3  C   LIG     1      17.234  36.067  23.959  1.00  0.00    -0.020 A 
HETATM    4  C   LIG     1      17.082  34.890  23.193  1.00  0.00     0.013 A 
HETATM    5  C   LIG     1      16.788  34.964  21.829  1.00  0.00     0.001 A 
HETATM    6  C   LIG     1      16.640  36.203  21.207  1.00  0.00     0.001 A 
HETATM    7  C   LIG     1      16.784  37.380  21.943  1.00  0.00     0.012 A 
HETATM    8  C   LIG     1      17.080  37.324  23.315  1.00  0.00    -0.025 A 
HETATM    9  C   LIG     1      17.224  38.509  24.048  1.00  0.00     0.012 A 
HETATM   10  C   LIG     1      17.518  38.461  25.409  1.00  0.00     0.001 A 
HETATM   11  C   LIG     1      17.672  37.234  26.054  1.00  0.00     0.007 A 
ENDROOT
TORSDOF 0
ENDMDL
MODEL 5
REMARK VINA RESULT:      -7.6      2.220      4.996
REMARK  0 active torsions:
REMARK  status: ('A' for Active; 'I' for Inactive)
ROOT
HETATM    1  C   LIG     1      17.172  38.563  23.983  1.00  0.00     0.049 C 
HETATM    2  C   LIG     1      17.269  37.557  22.865  1.00  0.00    -0.051 A 
HETATM    3  C   LIG     1      17.956  37.844  21.655  1.00  0.00    -0.020 A 
HETATM    4  C   LIG     1      18.587  39.087  21.431  1.00  0.00     0.013 A 
HETATM    5  C   LIG     1      19.254  39.337  20.229  1.00  0.00     0.001 A 
HETATM    6  C   LIG     1      19.305  38.360  19.234  1.00  0.00     0.001 A 
HETATM    7  C   LIG     1      18.690  37.123  19.434  1.00  0.00     0.012 A 
HETATM    8  C   LIG     1      18.015  36.855  20.636  1.00  0.00    -0.025 A 
HETATM    9  C   LIG     1      17.398  35.612  20.830  1.00  0.00     0.012 A 
HETATM   10  C   LIG     1      16.726  35.339  22.019  1.00  0.00     0.001 A 
HETATM   11  C   LIG     1      16.661  36.300  23.028  1.00  0.00     0.007 A 
ENDROOT
TORSDOF 0
ENDMDL
MODEL 6
REMARK VINA RESULT:      -7.1      0.862      4.150
REMARK  0 active torsions:
REMARK  status: ('A' for Active; 'I' for Inactive)
ROOT
HETATM    1  C   LIG     1      17.393  38.902  25.746  1.00  0.00     0.049 C 
HETATM    2  C   LIG     1      17.484  37.420  25.483  1.00  0.00    -0.051 A 
HETATM    3  C   LIG     1      17.163  36.861  24.218  1.00  0.00    -0.020 A 
HETATM    4  C   LIG     1      16.741  37.660  23.133  1.00  0.00     0.013 A 
HETATM    5  C   LIG     1      16.433  37.078  21.900  1.00  0.00     0.001 A 
HETATM    6  C   LIG     1      16.539  35.698  21.727  1.00  0.00     0.001 A 
HETATM    7  C   LIG     1      16.954  34.888  22.785  1.00  0.00     0.012 A 
HETATM    8  C   LIG     1      17.268  35.456  24.030  1.00  0.00    -0.025 A 
HETATM    9  C   LIG     1      17.683  34.637  25.089  1.00  0.00     0.012 A 
HETATM   10  C   LIG     1      17.996  35.194  26.327  1.00  0.00     0.001 A 
HETATM   11  C   LIG     1      17.897  36.572  26.525  1.00  0.00     0.007 A 
ENDROOT
TORSDOF 0
ENDMDL
MODEL 7
REMARK VINA RESULT:      -6.7      2.946      4.024
REMARK  0 active torsions:
REMARK  status: ('A' for Active; 'I' for Inactive)
ROOT
HETATM    1  C   LIG     1      19.622  37.452  19.363  1.00  0.00     0.049 C 
HETATM    2  C   LIG     1      18.726  37.882  20.496  1.00  0.00    -0.051 A 
HETATM    3  C   LIG     1      17.594  37.120  20.890  1.00  0.00    -0.020 A 
HETATM    4  C   LIG     1      17.243  35.915  20.242  1.00  0.00     0.013 A 
HETATM    5  C   LIG     1      16.123  35.189  20.653  1.00  0.00     0.001 A 
HETATM    6  C   LIG     1      15.336  35.646  21.710  1.00  0.00     0.001 A 
HETATM    7  C   LIG     1      15.664  36.833  22.367  1.00  0.00     0.012 A 
HETATM    8  C   LIG     1      16.787  37.576  21.966  1.00  0.00    -0.025 A 
HETATM    9  C   LIG     1      17.110  38.768  22.628  1.00  0.00     0.012 A 
HETATM   10  C   LIG     1      18.222  39.510  22.236  1.00  0.00     0.001 A 
HETATM   11  C   LIG     1      19.023  39.073  21.181  1.00  0.00     0.007 A 
ENDROOT
TORSDOF 0
ENDMDL
MODEL 8
REMARK VINA RESULT:      -6.7      1.775      3.898
REMARK  0 active torsions:
REMARK  status: ('A' for Active; 'I' for Inactive)
ROOT
HETATM    1  C   LIG     1      17.461  38.173  24.791  1.00  0.00     0.049 C 
HETATM    2  C   LIG     1      17.774  38.130  23.317  1.00  0.00    -0.051 A 
HETATM    3  C   LIG     1      17.330  37.066  22.486  1.00  0.00    -0.020 A 
HETATM    4  C   LIG     1      16.570  35.989  22.993  1.00  0.00     0.013 A 
HETATM    5  C   LIG     1      16.150  34.959  22.148  1.00  0.00     0.001 A 
HETATM    6  C   LIG     1      16.476  34.981  20.793  1.00  0.00     0.001 A 
HETATM    7  C   LIG     1      17.226  36.036  20.269  1.00  0.00     0.012 A 
HETATM    8  C   LIG     1      17.656  37.080  21.103  1.00  0.00    -0.025 A 
HETATM    9  C   LIG     1      18.409  38.135  20.572  1.00  0.00     0.012 A 
HETATM   10  C   LIG     1      18.841  39.174  21.393  1.00  0.00     0.001 A 
HETATM   11  C   LIG     1      18.527  39.173  22.753  1.00  0.00     0.007 A 
ENDROOT
TORSDOF 0
ENDMDL
MODEL 9
REMARK VINA RESULT:      -6.6      2.248      3.355
REMARK  0 active torsions:
REMARK  status: ('A' for Active; 'I' for Inactive)
ROOT
HETATM    1  C   LIG     1      16.432  35.003  20.400  1.00  0.00     0.049 C 
HETATM    2  C   LIG     1      17.321  36.219  20.464  1.00  0.00    -0.051 A 
HETATM    3  C   LIG     1      17.342  37.075  21.597  1.00  0.00    -0.020 A 
HETATM    4  C   LIG     1      16.532  36.837  22.729  1.00  0.00     0.013 A 
HETATM    5  C   LIG     1      16.577  37.699  23.827  1.00  0.00     0.001 A 
HETATM    6  C   LIG     1      17.423  38.808  23.819  1.00  0.00     0.001 A 
HETATM    7  C   LIG     1      18.234  39.064  22.711  1.00  0.00     0.012 A 
HETATM    8  C   LIG     1      18.202  38.207  21.599  1.00  0.00    -0.025 A 
HETATM    9  C   LIG     1      19.017  38.470  20.490  1.00  0.00     0.012 A 
HETATM   10  C   LIG     1      18.990  37.625  19.383  1.00  0.00     0.001 A 
HETATM   11  C   LIG     1      18.151  36.510  19.367  1.00  0.00     0.007 A 
ENDROOT
TORSDOF 0
ENDMDL
MODEL 10
REMARK VINA RESULT:      -6.5      1.119      3.921
REMARK  0 active torsions:
REMARK  status: ('A' for Active; 'I' for Inactive)
ROOT
HETATM    1  C   LIG     1      18.284  39.486  22.346  1.00  0.00     0.049 C 
HETATM    2  C   LIG     1      17.867  38.263  23.122  1.00  0.00    -0.051 A 
HETATM    3  C   LIG     1      17.415  37.081  22.476  1.00  0.00    -0.020 A 
HETATM    4  C   LIG     1      17.331  36.985  21.069  1.00  0.00     0.013 A 
HETATM    5  C   LIG     1      16.882  35.807  20.465  1.00  0.00     0.001 A 
HETATM    6  C   LIG     1      16.510  34.712  21.245  1.00  0.00     0.001 A 
HETATM    7  C   LIG     1      16.586  34.784  22.636  1.00  0.00     0.012 A 
HETATM    8  C   LIG     1      17.035  35.959  23.261  1.00  0.00    -0.025 A 
HETATM    9  C   LIG     1      17.107  36.026  24.658  1.00  0.00     0.012 A 
HETATM   10  C   LIG     1      17.551  37.188  25.284  1.00  0.00     0.001 A 
HETATM   11  C   LIG     1      17.928  38.297  24.526  1.00  0.00     0.007 A 
ENDROOT
TORSDOF 0
ENDMDL
MODEL 11
REMARK VINA RESULT:      -6.5      8.650     11.002
REMARK  0 active torsions:
REMARK  status: ('A' for Active; 'I' for Inactive)
ROOT
HETATM    1  C   LIG     1      17.238  32.996  14.891  1.00  0.00     0.049 C 
HETATM    2  C   LIG     1      15.941  32.591  15.544  1.00  0.00    -0.051 A 
HETATM    3  C   LIG     1      15.206  31.455  15.112  1.00  0.00    -0.020 A 
HETATM    4  C   LIG     1      15.648  30.640  14.046  1.00  0.00     0.013 A 
HETATM    5  C   LIG     1      14.900  29.529  13.646  1.00  0.00     0.001 A 
HETATM    6  C   LIG     1      13.707  29.212  14.294  1.00  0.00     0.001 A 
HETATM    7  C   LIG     1      13.251  30.002  15.350  1.00  0.00     0.012 A 
HETATM    8  C   LIG     1      13.990  31.122  15.766  1.00  0.00    -0.025 A 
HETATM    9  C   LIG     1      13.526  31.911  16.826  1.00  0.00     0.012 A 
HETATM   10  C   LIG     1      14.253  33.024  17.244  1.00  0.00     0.001 A 
HETATM   11  C   LIG     1      15.449  33.362  16.610  1.00  0.00     0.007 A 
ENDROOT
TORSDOF 0
ENDMDL
MODEL 12
REMARK VINA RESULT:      -6.4      1.902      3.708
REMARK  0 active torsions:
REMARK  status: ('A' for Active; 'I' for Inactive)
ROOT
HETATM    1  C   LIG     1      19.262  39.406  20.377  1.00  0.00     0.049 C 
HETATM    2  C   LIG     1      18.480  38.154  20.683  1.00  0.00    -0.051 A 
HETATM    3  C   LIG     1      17.945  37.900  21.974  1.00  0.00    -0.020 A 
HETATM    4  C   LIG     1      18.114  38.806  23.045  1.00  0.00     0.013 A 
HETATM    5  C   LIG     1      17.575  38.525  24.303  1.00  0.00     0.001 A 
HETATM    6  C   LIG     1      16.863  37.345  24.517  1.00  0.00     0.001 A 
HETATM    7  C   LIG     1      16.682  36.435  23.474  1.00  0.00     0.012 A 
HETATM    8  C   LIG     1      17.217  36.701  22.203  1.00  0.00    -0.025 A 
HETATM    9  C   LIG     1      17.033  35.784  21.161  1.00  0.00     0.012 A 
HETATM   10  C   LIG     1      17.562  36.041  19.897  1.00  0.00     0.001 A 
HETATM   11  C   LIG     1      18.279  37.214  19.659  1.00  0.00     0.007 A 
ENDROOT
TORSDOF 0
ENDMDL
MODEL 13
REMARK VINA RESULT:      -6.3      8.071     10.532
REMARK  0 active torsions:
REMARK  status: ('A' for Active; 'I' for Inactive)
ROOT
HETATM    1  C   LIG     1      13.456  29.181  14.362  1.00  0.00     0.049 C 
HETATM    2  C   LIG     1      14.436  30.325  14.433  1.00  0.00    -0.051 A 
HETATM    3  C   LIG     1      14.570  31.126  15.598  1.00  0.00    -0.020 A 
HETATM    4  C   LIG     1      13.794  30.898  16.756  1.00  0.00     0.013 A 
HETATM    5  C   LIG     1      13.952  31.706  17.885  1.00  0.00     0.001 A 
HETATM    6  C   LIG     1      14.878  32.749  17.882  1.00  0.00     0.001 A 
HETATM    7  C   LIG     1      15.656  32.993  16.749  1.00  0.00     0.012 A 
HETATM    8  C   LIG     1      15.512  32.191  15.606  1.00  0.00    -0.025 A 
HETATM    9  C   LIG     1      16.295  32.441  14.472  1.00  0.00     0.012 A 
HETATM   10  C   LIG     1      16.157  31.650  13.333  1.00  0.00     0.001 A 
HETATM   11  C   LIG     1      15.236  30.601  13.312  1.00  0.00     0.007 A 
ENDROOT
TORSDOF 0
ENDMDL
MODEL 14
REMARK VINA RESULT:      -6.2      9.129     11.174
REMARK  0 active torsions:
REMARK  status: ('A' for Active; 'I' for Inactive)
ROOT
HETATM    1  C   LIG     1      13.845  31.826  17.476  1.00  0.00     0.049 C 
HETATM    2  C   LIG     1      14.285  31.345  16.117  1.00  0.00    -0.051 A 
HETATM    3  C   LIG     1      15.315  31.996  15.387  1.00  0.00    -0.020 A 
HETATM    4  C   LIG     1      15.986  33.131  15.893  1.00  0.00     0.013 A 
HETATM    5  C   LIG     1      16.996  33.748  15.149  1.00  0.00     0.001 A 
HETATM    6  C   LIG     1      17.352  33.251  13.897  1.00  0.00     0.001 A 
HETATM    7  C   LIG     1      16.703  32.130  13.376  1.00  0.00     0.012 A 
HETATM    8  C   LIG     1      15.687  31.497  14.110  1.00  0.00    -0.025 A 
HETATM    9  C   LIG     1      15.039  30.373  13.581  1.00  0.00     0.012 A 
HETATM   10  C   LIG     1      14.029  29.740  14.304  1.00  0.00     0.001 A 
HETATM   11  C   LIG     1      13.654  30.219  15.559  1.00  0.00     0.007 A 
ENDROOT
TORSDOF 0
ENDMDL
MODEL 15
REMARK VINA RESULT:      -6.2      0.985      4.165
REMARK  0 active torsions:
REMARK  status: ('A' for Active; 'I' for Inactive)
ROOT
HETATM    1  C   LIG     1      17.987  37.232  26.342  1.00  0.00     0.049 C 
HETATM    2  C   LIG     1      17.641  36.610  25.013  1.00  0.00    -0.051 A 
HETATM    3  C   LIG     1      17.710  37.345  23.800  1.00  0.00    -0.020 A 
HETATM    4  C   LIG     1      18.105  38.701  23.769  1.00  0.00     0.013 A 
HETATM    5  C   LIG     1      18.161  39.395  22.557  1.00  0.00     0.001 A 
HETATM    6  C   LIG     1      17.827  38.758  21.363  1.00  0.00     0.001 A 
HETATM    7  C   LIG     1      17.434  37.418  21.369  1.00  0.00     0.012 A 
HETATM    8  C   LIG     1      17.372  36.705  22.577  1.00  0.00    -0.025 A 
HETATM    9  C   LIG     1      16.976  35.361  22.576  1.00  0.00     0.012 A 
HETATM   10  C   LIG     1      16.912  34.647  23.771  1.00  0.00     0.001 A 
HETATM   11  C   LIG     1      17.241  35.263  24.978  1.00  0.00     0.007 A 
ENDROOT
TORSDOF 0
ENDMDL
MODEL 16
REMARK VINA RESULT:      -6.1      7.734     10.901
REMARK  0 active torsions:
REMARK  status: ('A' for Active; 'I' for Inactive)
ROOT
HETATM    1  C   LIG     1      15.043  32.911  18.151  1.00  0.00     0.049 C 
HETATM    2  C   LIG     1      14.689  32.048  16.967  1.00  0.00    -0.051 A 
HETATM    3  C   LIG     1      15.398  32.131  15.739  1.00  0.00    -0.020 A 
HETATM    4  C   LIG     1      16.475  33.027  15.557  1.00  0.00     0.013 A 
HETATM    5  C   LIG     1      17.151  33.084  14.335  1.00  0.00     0.001 A 
HETATM    6  C   LIG     1      16.769  32.256  13.279  1.00  0.00     0.001 A 
HETATM    7  C   LIG     1      15.708  31.363  13.436  1.00  0.00     0.012 A 
HETATM    8  C   LIG     1      15.018  31.292  14.657  1.00  0.00    -0.025 A 
HETATM    9  C   LIG     1      13.953  30.394  14.808  1.00  0.00     0.012 A 
HETATM   10  C   LIG     1      13.263  30.319  16.016  1.00  0.00     0.001 A 
HETATM   11  C   LIG     1      13.626  31.137  17.086  1.00  0.00     0.007 A 
ENDROOT
TORSDOF 0
ENDMDL
