MODEL 1
REMARK VINA RESULT:      -8.2      0.000      0.000
REMARK  0 active torsions:
REMARK  status: ('A' for Active; 'I' for Inactive)
ROOT
HETATM    1 CL   LIG     1      16.191  34.810  21.921  1.00  0.00    -0.083 Cl
HETATM    2  C   LIG     1      16.751  36.220  22.819  1.00  0.00     0.045 A 
HETATM    3  C   LIG     1      17.250  36.127  24.137  1.00  0.00    -0.004 A 
HETATM    4  C   LIG     1      17.329  34.895  24.816  1.00  0.00     0.014 A 
HETATM    5  C   LIG     1      17.828  34.835  26.120  1.00  0.00     0.001 A 
HETATM    6  C   LIG     1      18.253  35.998  26.765  1.00  0.00     0.001 A 
HETATM    7  C   LIG     1      18.182  37.229  26.111  1.00  0.00     0.012 A 
HETATM    8  C   LIG     1      17.684  37.306  24.801  1.00  0.00    -0.024 A 
HETATM    9  C   LIG     1      17.614  38.543  24.144  1.00  0.00     0.012 A 
HETATM   10  C   LIG     1      17.119  38.620  22.842  1.00  0.00     0.003 A 
HETATM   11  C   LIG     1      16.690  37.467  22.184  1.00  0.00     0.024 A 
ENDROOT
TORSDOF 0
ENDMDL
MODEL 2
REMARK VINA RESULT:      -7.8      1.655      2.625
REMARK  0 active torsions:
REMARK  status: ('A' for Active; 'I' for Inactive)
ROOT
HETATM    1 CL   LIG     1      17.277  39.375  22.767  1.00  0.00    -0.083 Cl
HETATM    2  C   LIG     1      17.132  37.624  22.914  1.00  0.00     0.045 A 
HETATM    3  C   LIG     1      17.423  36.940  24.115  1.00  0.00    -0.004 A 
HETATM    4  C   LIG     1      17.850  37.621  25.272  1.00  0.00     0.014 A 
HETATM    5  C   LIG     1      18.131  36.916  26.446  1.00  0.00     0.001 A 
HETATM    6  C   LIG     1      17.992  35.527  26.483  1.00  0.00     0.001 A 
HETATM    7  C   LIG     1      17.570  34.834  25.348  1.00  0.00     0.012 A 
HETATM    8  C   LIG     1      17.284  35.527  24.161  1.00  0.00    -0.024 A 
HETATM    9  C   LIG     1      16.860  34.829  23.021  1.00  0.00     0.012 A 
HETATM   10  C   LIG     1      16.576  35.518  21.842  1.00  0.00     0.003 A 
HETATM   11  C   LIG     1      16.711  36.906  21.788  1.00  0.00     0.024 A 
ENDROOT
TORSDOF 0
ENDMDL
MODEL 3
REMARK VINA RESULT:      -7.7      2.841      4.337
REMARK  0 active torsions:
REMARK  status: ('A' for Active; 'I' for Inactive)
ROOT
HETATM    1 CL   LIG     1      16.457  34.748  20.879  1.00  0.00    -0.083 Cl
HETATM    2  C   LIG     1      16.738  36.384  21.471  1.00  0.00     0.045 A 
HETATM    3  C   LIG     1      17.755  37.213  20.946  1.00  0.00    -0.004 A 
HETATM    4  C   LIG     1      18.609  36.777  19.914  1.00  0.00     0.014 A 
HETATM    5  C   LIG     1      19.606  37.621  19.416  1.00  0.00     0.001 A 
HETATM    6  C   LIG     1      19.767  38.906  19.938  1.00  0.00     0.001 A 
HETATM    7  C   LIG     1      18.931  39.357  20.960  1.00  0.00     0.012 A 
HETATM    8  C   LIG     1      17.925  38.522  21.472  1.00  0.00    -0.024 A 
HETATM    9  C   LIG     1      17.086  38.977  22.499  1.00  0.00     0.012 A 
HETATM   10  C   LIG     1      16.086  38.147  23.008  1.00  0.00     0.003 A 
HETATM   11  C   LIG     1      15.913  36.860  22.497  1.00  0.00     0.024 A 
ENDROOT
TORSDOF 0
ENDMDL
MODEL 4
REMARK VINA RESULT:      -7.4      2.619      4.992
REMARK  0 active torsions:
REMARK  status: ('A' for Active; 'I' for Inactive)
ROOT
HETATM    1 CL   LIG     1      17.191  38.566  24.314  1.00  0.00    -0.083 Cl
HETATM    2  C   LIG     1      17.288  37.444  22.958  1.00  0.00     0.045 A 
HETATM    3  C   LIG     1      17.933  37.779  21.746  1.00  0.00    -0.004 A 
HETATM    4  C   LIG     1      18.538  39.036  21.549  1.00  0.00     0.014 A 
HETATM    5  C   LIG     1      19.168  39.337  20.339  1.00  0.00     0.001 A 
HETATM    6  C   LIG     1      19.204  38.394  19.310  1.00  0.00     0.001 A 
HETATM    7  C   LIG     1      18.610  37.143  19.484  1.00  0.00     0.012 A 
HETATM    8  C   LIG     1      17.973  36.824  20.694  1.00  0.00    -0.024 A 
HETATM    9  C   LIG     1      17.377  35.567  20.868  1.00  0.00     0.012 A 
HETATM   10  C   LIG     1      16.744  35.251  22.071  1.00  0.00     0.003 A 
HETATM   11  C   LIG     1      16.700  36.183  23.108  1.00  0.00     0.024 A 
ENDROOT
TORSDOF 0
ENDMDL
MODEL 5
REMARK VINA RESULT:      -6.8      1.988      4.177
REMARK  0 active torsions:
REMARK  status: ('A' for Active; 'I' for Inactive)
ROOT
HETATM    1 CL   LIG     1      17.367  39.215  25.714  1.00  0.00    -0.083 Cl
HETATM    2  C   LIG     1      17.456  37.477  25.438  1.00  0.00     0.045 A 
HETATM    3  C   LIG     1      17.140  36.893  24.190  1.00  0.00    -0.004 A 
HETATM    4  C   LIG     1      16.733  37.671  23.088  1.00  0.00     0.014 A 
HETATM    5  C   LIG     1      16.428  37.065  21.867  1.00  0.00     0.001 A 
HETATM    6  C   LIG     1      16.523  35.679  21.726  1.00  0.00     0.001 A 
HETATM    7  C   LIG     1      16.924  34.890  22.805  1.00  0.00     0.012 A 
HETATM    8  C   LIG     1      17.234  35.484  24.039  1.00  0.00    -0.024 A 
HETATM    9  C   LIG     1      17.638  34.690  25.122  1.00  0.00     0.012 A 
HETATM   10  C   LIG     1      17.946  35.280  26.348  1.00  0.00     0.003 A 
HETATM   11  C   LIG     1      17.856  36.663  26.505  1.00  0.00     0.024 A 
ENDROOT
TORSDOF 0
ENDMDL
MODEL 6
REMARK VINA RESULT:      -6.6      2.603      3.961
REMARK  0 active torsions:
REMARK  status: ('A' for Active; 'I' for Inactive)
ROOT
HETATM    1 CL   LIG     1      17.289  38.202  24.971  1.00  0.00    -0.083 Cl
HETATM    2  C   LIG     1      17.708  38.126  23.261  1.00  0.00     0.045 A 
HETATM    3  C   LIG     1      17.295  37.061  22.429  1.00  0.00    -0.004 A 
HETATM    4  C   LIG     1      16.520  35.992  22.921  1.00  0.00     0.014 A 
HETATM    5  C   LIG     1      16.126  34.954  22.072  1.00  0.00     0.001 A 
HETATM    6  C   LIG     1      16.499  34.964  20.727  1.00  0.00     0.001 A 
HETATM    7  C   LIG     1      17.267  36.013  20.220  1.00  0.00     0.012 A 
HETATM    8  C   LIG     1      17.670  37.065  21.059  1.00  0.00    -0.024 A 
HETATM    9  C   LIG     1      18.441  38.118  20.548  1.00  0.00     0.012 A 
HETATM   10  C   LIG     1      18.842  39.163  21.382  1.00  0.00     0.003 A 
HETATM   11  C   LIG     1      18.478  39.166  22.729  1.00  0.00     0.024 A 
ENDROOT
TORSDOF 0
ENDMDL
MODEL 7
REMARK VINA RESULT:      -6.5      2.439      3.351
REMARK  0 active torsions:
REMARK  status: ('A' for Active; 'I' for Inactive)
ROOT
HETATM    1 CL   LIG     1      18.641  37.168  18.561  1.00  0.00    -0.083 Cl
HETATM    2  C   LIG     1      18.366  37.788  20.187  1.00  0.00     0.045 A 
HETATM    3  C   LIG     1      17.773  37.006  21.204  1.00  0.00    -0.004 A 
HETATM    4  C   LIG     1      17.365  35.677  20.975  1.00  0.00     0.014 A 
HETATM    5  C   LIG     1      16.781  34.929  22.001  1.00  0.00     0.001 A 
HETATM    6  C   LIG     1      16.596  35.491  23.265  1.00  0.00     0.001 A 
HETATM    7  C   LIG     1      16.994  36.806  23.513  1.00  0.00     0.012 A 
HETATM    8  C   LIG     1      17.581  37.572  22.493  1.00  0.00    -0.024 A 
HETATM    9  C   LIG     1      17.981  38.892  22.743  1.00  0.00     0.012 A 
HETATM   10  C   LIG     1      18.565  39.653  21.729  1.00  0.00     0.003 A 
HETATM   11  C   LIG     1      18.756  39.105  20.461  1.00  0.00     0.024 A 
ENDROOT
TORSDOF 0
ENDMDL
MODEL 8
REMARK VINA RESULT:      -6.5      1.888      3.043
REMARK  0 active torsions:
REMARK  status: ('A' for Active; 'I' for Inactive)
ROOT
HETATM    1 CL   LIG     1      18.302  39.154  20.851  1.00  0.00    -0.083 Cl
HETATM    2  C   LIG     1      17.688  37.623  21.473  1.00  0.00     0.045 A 
HETATM    3  C   LIG     1      17.593  37.354  22.857  1.00  0.00    -0.004 A 
HETATM    4  C   LIG     1      17.986  38.299  23.825  1.00  0.00     0.014 A 
HETATM    5  C   LIG     1      17.879  38.002  25.187  1.00  0.00     0.001 A 
HETATM    6  C   LIG     1      17.383  36.765  25.602  1.00  0.00     0.001 A 
HETATM    7  C   LIG     1      16.989  35.815  24.658  1.00  0.00     0.012 A 
HETATM    8  C   LIG     1      17.089  36.097  23.286  1.00  0.00    -0.024 A 
HETATM    9  C   LIG     1      16.693  35.142  22.339  1.00  0.00     0.012 A 
HETATM   10  C   LIG     1      16.792  35.423  20.976  1.00  0.00     0.003 A 
HETATM   11  C   LIG     1      17.287  36.654  20.546  1.00  0.00     0.024 A 
ENDROOT
TORSDOF 0
ENDMDL
MODEL 9
REMARK VINA RESULT:      -6.5      2.253      3.378
REMARK  0 active torsions:
REMARK  status: ('A' for Active; 'I' for Inactive)
ROOT
HETATM    1 CL   LIG     1      16.314  34.762  20.383  1.00  0.00    -0.083 Cl
HETATM    2  C   LIG     1      17.326  36.202  20.464  1.00  0.00     0.045 A 
HETATM    3  C   LIG     1      17.338  37.054  21.592  1.00  0.00    -0.004 A 
HETATM    4  C   LIG     1      16.537  36.801  22.722  1.00  0.00     0.014 A 
HETATM    5  C   LIG     1      16.570  37.663  23.822  1.00  0.00     0.001 A 
HETATM    6  C   LIG     1      17.400  38.786  23.811  1.00  0.00     0.001 A 
HETATM    7  C   LIG     1      18.202  39.055  22.701  1.00  0.00     0.012 A 
HETATM    8  C   LIG     1      18.180  38.199  21.588  1.00  0.00    -0.024 A 
HETATM    9  C   LIG     1      18.986  38.470  20.473  1.00  0.00     0.012 A 
HETATM   10  C   LIG     1      18.964  37.620  19.367  1.00  0.00     0.003 A 
HETATM   11  C   LIG     1      18.140  36.494  19.363  1.00  0.00     0.024 A 
ENDROOT
TORSDOF 0
ENDMDL
MODEL 10
REMARK VINA RESULT:      -6.4      9.188     11.038
REMARK  0 active torsions:
REMARK  status: ('A' for Active; 'I' for Inactive)
ROOT
HETATM    1 CL   LIG     1      17.464  33.026  14.883  1.00  0.00    -0.083 Cl
HETATM    2  C   LIG     1      15.923  32.558  15.598  1.00  0.00     0.045 A 
HETATM    3  C   LIG     1      15.189  31.439  15.145  1.00  0.00    -0.004 A 
HETATM    4  C   LIG     1      15.649  30.627  14.089  1.00  0.00     0.014 A 
HETATM    5  C   LIG     1      14.899  29.527  13.663  1.00  0.00     0.001 A 
HETATM    6  C   LIG     1      13.685  29.220  14.281  1.00  0.00     0.001 A 
HETATM    7  C   LIG     1      13.212  30.011  15.329  1.00  0.00     0.012 A 
HETATM    8  C   LIG     1      13.952  31.120  15.768  1.00  0.00    -0.024 A 
HETATM    9  C   LIG     1      13.476  31.914  16.821  1.00  0.00     0.012 A 
HETATM   10  C   LIG     1      14.212  33.016  17.258  1.00  0.00     0.003 A 
HETATM   11  C   LIG     1      15.426  33.336  16.651  1.00  0.00     0.024 A 
ENDROOT
TORSDOF 0
ENDMDL
MODEL 11
REMARK VINA RESULT:      -6.3      2.301      3.951
REMARK  0 active torsions:
REMARK  status: ('A' for Active; 'I' for Inactive)
ROOT
HETATM    1 CL   LIG     1      18.734  39.423  20.799  1.00  0.00    -0.083 Cl
HETATM    2  C   LIG     1      18.077  38.406  22.081  1.00  0.00     0.045 A 
HETATM    3  C   LIG     1      17.461  37.162  21.817  1.00  0.00    -0.004 A 
HETATM    4  C   LIG     1      17.335  36.659  20.507  1.00  0.00     0.014 A 
HETATM    5  C   LIG     1      16.720  35.425  20.279  1.00  0.00     0.001 A 
HETATM    6  C   LIG     1      16.224  34.677  21.348  1.00  0.00     0.001 A 
HETATM    7  C   LIG     1      16.339  35.157  22.653  1.00  0.00     0.012 A 
HETATM    8  C   LIG     1      16.954  36.395  22.900  1.00  0.00    -0.024 A 
HETATM    9  C   LIG     1      17.069  36.877  24.212  1.00  0.00     0.012 A 
HETATM   10  C   LIG     1      17.680  38.107  24.457  1.00  0.00     0.003 A 
HETATM   11  C   LIG     1      18.180  38.866  23.399  1.00  0.00     0.024 A 
ENDROOT
TORSDOF 0
ENDMDL
MODEL 12
REMARK VINA RESULT:      -6.1      9.095     10.831
REMARK  0 active torsions:
REMARK  status: ('A' for Active; 'I' for Inactive)
ROOT
HETATM    1 CL   LIG     1      17.127  33.055  13.486  1.00  0.00    -0.083 Cl
HETATM    2  C   LIG     1      15.955  31.868  14.055  1.00  0.00     0.045 A 
HETATM    3  C   LIG     1      15.346  31.957  15.327  1.00  0.00    -0.004 A 
HETATM    4  C   LIG     1      15.643  33.006  16.220  1.00  0.00     0.014 A 
HETATM    5  C   LIG     1      15.024  33.066  17.472  1.00  0.00     0.001 A 
HETATM    6  C   LIG     1      14.104  32.087  17.850  1.00  0.00     0.001 A 
HETATM    7  C   LIG     1      13.796  31.040  16.980  1.00  0.00     0.012 A 
HETATM    8  C   LIG     1      14.409  30.964  15.719  1.00  0.00    -0.024 A 
HETATM    9  C   LIG     1      14.098  29.912  14.846  1.00  0.00     0.012 A 
HETATM   10  C   LIG     1      14.708  29.837  13.593  1.00  0.00     0.003 A 
HETATM   11  C   LIG     1      15.629  30.808  13.200  1.00  0.00     0.024 A 
ENDROOT
TORSDOF 0
ENDMDL
MODEL 13
REMARK VINA RESULT:      -6.0      2.965      4.435
REMARK  0 active torsions:
REMARK  status: ('A' for Active; 'I' for Inactive)
ROOT
HETATM    1 CL   LIG     1      18.468  40.092  22.250  1.00  0.00    -0.083 Cl
HETATM    2  C   LIG     1      18.414  38.713  21.154  1.00  0.00     0.045 A 
HETATM    3  C   LIG     1      17.727  37.521  21.474  1.00  0.00    -0.004 A 
HETATM    4  C   LIG     1      17.042  37.363  22.695  1.00  0.00     0.014 A 
HETATM    5  C   LIG     1      16.371  36.171  22.982  1.00  0.00     0.001 A 
HETATM    6  C   LIG     1      16.374  35.122  22.061  1.00  0.00     0.001 A 
HETATM    7  C   LIG     1      17.046  35.258  20.846  1.00  0.00     0.012 A 
HETATM    8  C   LIG     1      17.725  36.449  20.542  1.00  0.00    -0.024 A 
HETATM    9  C   LIG     1      18.400  36.584  19.320  1.00  0.00     0.012 A 
HETATM   10  C   LIG     1      19.074  37.767  19.018  1.00  0.00     0.003 A 
HETATM   11  C   LIG     1      19.081  38.824  19.929  1.00  0.00     0.024 A 
ENDROOT
TORSDOF 0
ENDMDL
MODEL 14
REMARK VINA RESULT:      -6.0      8.958     10.851
REMARK  0 active torsions:
REMARK  status: ('A' for Active; 'I' for Inactive)
ROOT
HETATM    1 CL   LIG     1      15.215  33.435  18.279  1.00  0.00    -0.083 Cl
HETATM    2  C   LIG     1      14.714  32.298  17.029  1.00  0.00     0.045 A 
HETATM    3  C   LIG     1      15.361  32.220  15.775  1.00  0.00    -0.004 A 
HETATM    4  C   LIG     1      16.450  33.052  15.449  1.00  0.00     0.014 A 
HETATM    5  C   LIG     1      17.069  32.951  14.200  1.00  0.00     0.001 A 
HETATM    6  C   LIG     1      16.613  32.023  13.261  1.00  0.00     0.001 A 
HETATM    7  C   LIG     1      15.535  31.190  13.564  1.00  0.00     0.012 A 
HETATM    8  C   LIG     1      14.902  31.279  14.815  1.00  0.00    -0.024 A 
HETATM    9  C   LIG     1      13.820  30.441  15.118  1.00  0.00     0.012 A 
HETATM   10  C   LIG     1      13.191  30.529  16.361  1.00  0.00     0.003 A 
HETATM   11  C   LIG     1      13.635  31.451  17.309  1.00  0.00     0.024 A 
ENDROOT
TORSDOF 0
ENDMDL
MODEL 15
REMARK VINA RESULT:      -5.9      9.026     10.666
REMARK  0 active torsions:
REMARK  status: ('A' for Active; 'I' for Inactive)
ROOT
HETATM    1 CL   LIG     1      15.250  34.269  17.619  1.00  0.00    -0.083 Cl
HETATM    2  C   LIG     1      15.617  33.272  16.213  1.00  0.00     0.045 A 
HETATM    3  C   LIG     1      14.839  32.145  15.862  1.00  0.00    -0.004 A 
HETATM    4  C   LIG     1      13.719  31.751  16.620  1.00  0.00     0.014 A 
HETATM    5  C   LIG     1      12.970  30.632  16.247  1.00  0.00     0.001 A 
HETATM    6  C   LIG     1      13.325  29.891  15.118  1.00  0.00     0.001 A 
HETATM    7  C   LIG     1      14.431  30.264  14.353  1.00  0.00     0.012 A 
HETATM    8  C   LIG     1      15.194  31.386  14.714  1.00  0.00    -0.024 A 
HETATM    9  C   LIG     1      16.305  31.761  13.945  1.00  0.00     0.012 A 
HETATM   10  C   LIG     1      17.064  32.876  14.304  1.00  0.00     0.003 A 
HETATM   11  C   LIG     1      16.722  33.626  15.429  1.00  0.00     0.024 A 
ENDROOT
TORSDOF 0
ENDMDL
