MODEL 1
REMARK VINA RESULT:      -7.8      0.000      0.000
REMARK  1 active torsions:
REMARK  status: ('A' for Active; 'I' for Inactive)
REMARK    1  A    between atoms: O_1  and  C_2 
ROOT
HETATM    1  C   LIG     1      17.461  37.611  25.557  1.00  0.00     0.076 A 
HETATM    2  C   LIG     1      17.961  36.812  26.592  1.00  0.00     0.037 A 
HETATM    3  C   LIG     1      18.110  35.435  26.427  1.00  0.00     0.004 A 
HETATM    4  C   LIG     1      17.762  34.832  25.220  1.00  0.00     0.012 A 
HETATM    5  C   LIG     1      17.259  35.605  24.164  1.00  0.00    -0.023 A 
HETATM    6  C   LIG     1      16.912  34.986  22.952  1.00  0.00     0.012 A 
HETATM    7  C   LIG     1      16.410  35.745  21.894  1.00  0.00     0.001 A 
HETATM    8  C   LIG     1      16.251  37.122  22.035  1.00  0.00     0.001 A 
HETATM    9  C   LIG     1      16.591  37.756  23.233  1.00  0.00     0.015 A 
HETATM   10  C   LIG     1      17.101  37.011  24.319  1.00  0.00     0.007 A 
ENDROOT
BRANCH   1  11
HETATM   11  O   LIG     1      17.343  38.981  25.808  1.00  0.00    -0.360 OA
HETATM   12  H   LIG     1      17.589  39.707  25.151  1.00  0.00     0.217 HD
ENDBRANCH   1  11
TORSDOF 1
ENDMDL
MODEL 2
REMARK VINA RESULT:      -7.8      0.786      3.377
REMARK  1 active torsions:
REMARK  status: ('A' for Active; 'I' for Inactive)
REMARK    1  A    between atoms: O_1  and  C_2 
ROOT
HETATM    1  C   LIG     1      16.839  37.891  23.282  1.00  0.00     0.076 A 
HETATM    2  C   LIG     1      16.400  37.296  22.092  1.00  0.00     0.037 A 
HETATM    3  C   LIG     1      16.393  35.910  21.945  1.00  0.00     0.004 A 
HETATM    4  C   LIG     1      16.823  35.091  22.987  1.00  0.00     0.012 A 
HETATM    5  C   LIG     1      17.267  35.656  24.191  1.00  0.00    -0.023 A 
HETATM    6  C   LIG     1      17.699  34.822  25.235  1.00  0.00     0.012 A 
HETATM    7  C   LIG     1      18.144  35.372  26.436  1.00  0.00     0.001 A 
HETATM    8  C   LIG     1      18.162  36.755  26.608  1.00  0.00     0.001 A 
HETATM    9  C   LIG     1      17.736  37.602  25.581  1.00  0.00     0.015 A 
HETATM   10  C   LIG     1      17.282  37.070  24.355  1.00  0.00     0.007 A 
ENDROOT
BRANCH   1  11
HETATM   11  O   LIG     1      16.814  39.287  23.344  1.00  0.00    -0.360 OA
HETATM   12  H   LIG     1      16.474  39.819  24.131  1.00  0.00     0.217 HD
ENDBRANCH   1  11
TORSDOF 1
ENDMDL
MODEL 3
REMARK VINA RESULT:      -7.8      1.853      4.120
REMARK  1 active torsions:
REMARK  status: ('A' for Active; 'I' for Inactive)
REMARK    1  A    between atoms: O_1  and  C_2 
ROOT
HETATM    1  C   LIG     1      16.743  36.072  22.819  1.00  0.00     0.076 A 
HETATM    2  C   LIG     1      16.647  37.293  22.139  1.00  0.00     0.037 A 
HETATM    3  C   LIG     1      17.036  38.485  22.749  1.00  0.00     0.004 A 
HETATM    4  C   LIG     1      17.530  38.477  24.052  1.00  0.00     0.012 A 
HETATM    5  C   LIG     1      17.640  37.271  24.758  1.00  0.00    -0.023 A 
HETATM    6  C   LIG     1      18.139  37.275  26.071  1.00  0.00     0.012 A 
HETATM    7  C   LIG     1      18.252  36.082  26.784  1.00  0.00     0.001 A 
HETATM    8  C   LIG     1      17.869  34.878  26.196  1.00  0.00     0.001 A 
HETATM    9  C   LIG     1      17.369  34.853  24.892  1.00  0.00     0.015 A 
HETATM   10  C   LIG     1      17.245  36.047  24.149  1.00  0.00     0.007 A 
ENDROOT
BRANCH   1  11
HETATM   11  O   LIG     1      16.330  34.926  22.133  1.00  0.00    -0.360 OA
HETATM   12  H   LIG     1      15.653  34.918  21.386  1.00  0.00     0.217 HD
ENDBRANCH   1  11
TORSDOF 1
ENDMDL
MODEL 4
REMARK VINA RESULT:      -7.6      2.790      4.023
REMARK  1 active torsions:
REMARK  status: ('A' for Active; 'I' for Inactive)
REMARK    1  A    between atoms: O_1  and  C_2 
ROOT
HETATM    1  C   LIG     1      16.862  38.226  22.407  1.00  0.00     0.076 A 
HETATM    2  C   LIG     1      16.076  37.098  22.673  1.00  0.00     0.037 A 
HETATM    3  C   LIG     1      16.253  35.916  21.955  1.00  0.00     0.004 A 
HETATM    4  C   LIG     1      17.222  35.841  20.957  1.00  0.00     0.012 A 
HETATM    5  C   LIG     1      18.027  36.952  20.667  1.00  0.00    -0.023 A 
HETATM    6  C   LIG     1      19.000  36.865  19.659  1.00  0.00     0.012 A 
HETATM    7  C   LIG     1      19.805  37.964  19.362  1.00  0.00     0.001 A 
HETATM    8  C   LIG     1      19.647  39.157  20.065  1.00  0.00     0.001 A 
HETATM    9  C   LIG     1      18.683  39.264  21.072  1.00  0.00     0.015 A 
HETATM   10  C   LIG     1      17.856  38.166  21.392  1.00  0.00     0.007 A 
ENDROOT
BRANCH   1  11
HETATM   11  O   LIG     1      16.618  39.369  23.173  1.00  0.00    -0.360 OA
HETATM   12  H   LIG     1      16.882  39.478  24.141  1.00  0.00     0.217 HD
ENDBRANCH   1  11
TORSDOF 1
ENDMDL
MODEL 5
REMARK VINA RESULT:      -7.4      3.404      4.809
REMARK  1 active torsions:
REMARK  status: ('A' for Active; 'I' for Inactive)
REMARK    1  A    between atoms: O_1  and  C_2 
ROOT
HETATM    1  C   LIG     1      16.861  36.213  21.176  1.00  0.00     0.076 A 
HETATM    2  C   LIG     1      15.957  36.565  22.186  1.00  0.00     0.037 A 
HETATM    3  C   LIG     1      16.026  37.812  22.807  1.00  0.00     0.004 A 
HETATM    4  C   LIG     1      17.001  38.731  22.426  1.00  0.00     0.012 A 
HETATM    5  C   LIG     1      17.920  38.410  21.417  1.00  0.00    -0.023 A 
HETATM    6  C   LIG     1      18.898  39.344  21.042  1.00  0.00     0.012 A 
HETATM    7  C   LIG     1      19.818  39.035  20.040  1.00  0.00     0.001 A 
HETATM    8  C   LIG     1      19.771  37.795  19.406  1.00  0.00     0.001 A 
HETATM    9  C   LIG     1      18.804  36.851  19.765  1.00  0.00     0.015 A 
HETATM   10  C   LIG     1      17.862  37.140  20.776  1.00  0.00     0.007 A 
ENDROOT
BRANCH   1  11
HETATM   11  O   LIG     1      16.721  34.943  20.609  1.00  0.00    -0.360 OA
HETATM   12  H   LIG     1      17.302  34.149  20.832  1.00  0.00     0.217 HD
ENDBRANCH   1  11
TORSDOF 1
ENDMDL
MODEL 6
REMARK VINA RESULT:      -7.2      3.032      4.474
REMARK  1 active torsions:
REMARK  status: ('A' for Active; 'I' for Inactive)
REMARK    1  A    between atoms: O_1  and  C_2 
ROOT
HETATM    1  C   LIG     1      18.766  39.107  21.131  1.00  0.00     0.076 A 
HETATM    2  C   LIG     1      19.736  38.992  20.128  1.00  0.00     0.037 A 
HETATM    3  C   LIG     1      19.839  37.833  19.359  1.00  0.00     0.004 A 
HETATM    4  C   LIG     1      18.970  36.767  19.580  1.00  0.00     0.012 A 
HETATM    5  C   LIG     1      17.987  36.851  20.576  1.00  0.00    -0.023 A 
HETATM    6  C   LIG     1      17.117  35.770  20.790  1.00  0.00     0.012 A 
HETATM    7  C   LIG     1      16.135  35.842  21.778  1.00  0.00     0.001 A 
HETATM    8  C   LIG     1      16.013  36.989  22.560  1.00  0.00     0.001 A 
HETATM    9  C   LIG     1      16.870  38.076  22.363  1.00  0.00     0.015 A 
HETATM   10  C   LIG     1      17.871  38.028  21.369  1.00  0.00     0.007 A 
ENDROOT
BRANCH   1  11
HETATM   11  O   LIG     1      18.734  40.303  21.854  1.00  0.00    -0.360 OA
HETATM   12  H   LIG     1      19.525  40.914  21.985  1.00  0.00     0.217 HD
ENDBRANCH   1  11
TORSDOF 1
ENDMDL
MODEL 7
REMARK VINA RESULT:      -7.0      3.277      5.017
REMARK  1 active torsions:
REMARK  status: ('A' for Active; 'I' for Inactive)
REMARK    1  A    between atoms: O_1  and  C_2 
ROOT
HETATM    1  C   LIG     1      18.465  37.360  19.757  1.00  0.00     0.076 A 
HETATM    2  C   LIG     1      18.996  38.639  19.546  1.00  0.00     0.037 A 
HETATM    3  C   LIG     1      18.967  39.602  20.554  1.00  0.00     0.004 A 
HETATM    4  C   LIG     1      18.408  39.302  21.794  1.00  0.00     0.012 A 
HETATM    5  C   LIG     1      17.869  38.031  22.038  1.00  0.00    -0.023 A 
HETATM    6  C   LIG     1      17.308  37.740  23.291  1.00  0.00     0.012 A 
HETATM    7  C   LIG     1      16.768  36.479  23.545  1.00  0.00     0.001 A 
HETATM    8  C   LIG     1      16.784  35.500  22.553  1.00  0.00     0.001 A 
HETATM    9  C   LIG     1      17.338  35.770  21.299  1.00  0.00     0.015 A 
HETATM   10  C   LIG     1      17.890  37.038  21.017  1.00  0.00     0.007 A 
ENDROOT
BRANCH   1  11
HETATM   11  O   LIG     1      18.534  36.457  18.693  1.00  0.00    -0.360 OA
HETATM   12  H   LIG     1      18.699  35.467  18.792  1.00  0.00     0.217 HD
ENDBRANCH   1  11
TORSDOF 1
ENDMDL
MODEL 8
REMARK VINA RESULT:      -6.3      8.858     10.820
REMARK  1 active torsions:
REMARK  status: ('A' for Active; 'I' for Inactive)
REMARK    1  A    between atoms: O_1  and  C_2 
ROOT
HETATM    1  C   LIG     1      13.706  32.106  16.743  1.00  0.00     0.076 A 
HETATM    2  C   LIG     1      14.546  33.178  17.068  1.00  0.00     0.037 A 
HETATM    3  C   LIG     1      15.749  33.375  16.391  1.00  0.00     0.004 A 
HETATM    4  C   LIG     1      16.134  32.502  15.376  1.00  0.00     0.012 A 
HETATM    5  C   LIG     1      15.315  31.420  15.027  1.00  0.00    -0.023 A 
HETATM    6  C   LIG     1      15.713  30.546  14.002  1.00  0.00     0.012 A 
HETATM    7  C   LIG     1      14.906  29.466  13.646  1.00  0.00     0.001 A 
HETATM    8  C   LIG     1      13.699  29.247  14.308  1.00  0.00     0.001 A 
HETATM    9  C   LIG     1      13.286  30.105  15.331  1.00  0.00     0.015 A 
HETATM   10  C   LIG     1      14.084  31.206  15.709  1.00  0.00     0.007 A 
ENDROOT
BRANCH   1  11
HETATM   11  O   LIG     1      12.519  31.982  17.471  1.00  0.00    -0.360 OA
HETATM   12  H   LIG     1      12.313  32.486  18.320  1.00  0.00     0.217 HD
ENDBRANCH   1  11
TORSDOF 1
ENDMDL
MODEL 9
REMARK VINA RESULT:      -6.3      2.813      3.788
REMARK  1 active torsions:
REMARK  status: ('A' for Active; 'I' for Inactive)
REMARK    1  A    between atoms: O_1  and  C_2 
ROOT
HETATM    1  C   LIG     1      17.578  38.521  22.625  1.00  0.00     0.076 A 
HETATM    2  C   LIG     1      18.654  39.269  22.133  1.00  0.00     0.037 A 
HETATM    3  C   LIG     1      19.282  38.922  20.937  1.00  0.00     0.004 A 
HETATM    4  C   LIG     1      18.842  37.818  20.210  1.00  0.00     0.012 A 
HETATM    5  C   LIG     1      17.766  37.049  20.674  1.00  0.00    -0.023 A 
HETATM    6  C   LIG     1      17.332  35.939  19.932  1.00  0.00     0.012 A 
HETATM    7  C   LIG     1      16.263  35.166  20.385  1.00  0.00     0.001 A 
HETATM    8  C   LIG     1      15.620  35.492  21.578  1.00  0.00     0.001 A 
HETATM    9  C   LIG     1      16.038  36.593  22.330  1.00  0.00     0.015 A 
HETATM   10  C   LIG     1      17.117  37.391  21.894  1.00  0.00     0.007 A 
ENDROOT
BRANCH   1  11
HETATM   11  O   LIG     1      17.008  38.938  23.831  1.00  0.00    -0.360 OA
HETATM   12  H   LIG     1      16.199  39.535  23.906  1.00  0.00     0.217 HD
ENDBRANCH   1  11
TORSDOF 1
ENDMDL
MODEL 10
REMARK VINA RESULT:      -6.2      8.873     11.058
REMARK  1 active torsions:
REMARK  status: ('A' for Active; 'I' for Inactive)
REMARK    1  A    between atoms: O_1  and  C_2 
ROOT
HETATM    1  C   LIG     1      13.308  30.437  15.792  1.00  0.00     0.076 A 
HETATM    2  C   LIG     1      13.492  29.505  14.764  1.00  0.00     0.037 A 
HETATM    3  C   LIG     1      14.565  29.616  13.880  1.00  0.00     0.004 A 
HETATM    4  C   LIG     1      15.475  30.662  14.009  1.00  0.00     0.012 A 
HETATM    5  C   LIG     1      15.319  31.612  15.029  1.00  0.00    -0.023 A 
HETATM    6  C   LIG     1      16.243  32.662  15.150  1.00  0.00     0.012 A 
HETATM    7  C   LIG     1      16.097  33.613  16.161  1.00  0.00     0.001 A 
HETATM    8  C   LIG     1      15.033  33.524  17.056  1.00  0.00     0.001 A 
HETATM    9  C   LIG     1      14.104  32.486  16.952  1.00  0.00     0.015 A 
HETATM   10  C   LIG     1      14.228  31.512  15.938  1.00  0.00     0.007 A 
ENDROOT
BRANCH   1  11
HETATM   11  O   LIG     1      12.207  30.252  16.632  1.00  0.00    -0.360 OA
HETATM   12  H   LIG     1      11.388  30.841  16.642  1.00  0.00     0.217 HD
ENDBRANCH   1  11
TORSDOF 1
ENDMDL
MODEL 11
REMARK VINA RESULT:      -6.1      8.702     10.203
REMARK  1 active torsions:
REMARK  status: ('A' for Active; 'I' for Inactive)
REMARK    1  A    between atoms: O_1  and  C_2 
ROOT
HETATM    1  C   LIG     1      14.889  32.564  17.119  1.00  0.00     0.076 A 
HETATM    2  C   LIG     1      13.842  31.697  17.455  1.00  0.00     0.037 A 
HETATM    3  C   LIG     1      13.400  30.726  16.558  1.00  0.00     0.004 A 
HETATM    4  C   LIG     1      13.998  30.603  15.306  1.00  0.00     0.012 A 
HETATM    5  C   LIG     1      15.050  31.455  14.940  1.00  0.00    -0.023 A 
HETATM    6  C   LIG     1      15.646  31.322  13.675  1.00  0.00     0.012 A 
HETATM    7  C   LIG     1      16.692  32.164  13.299  1.00  0.00     0.001 A 
HETATM    8  C   LIG     1      17.152  33.143  14.178  1.00  0.00     0.001 A 
HETATM    9  C   LIG     1      16.572  33.291  15.441  1.00  0.00     0.015 A 
HETATM   10  C   LIG     1      15.511  32.452  15.845  1.00  0.00     0.007 A 
ENDROOT
BRANCH   1  11
HETATM   11  O   LIG     1      15.269  33.508  18.077  1.00  0.00    -0.360 OA
HETATM   12  H   LIG     1      14.638  33.948  18.729  1.00  0.00     0.217 HD
ENDBRANCH   1  11
TORSDOF 1
ENDMDL
MODEL 12
REMARK VINA RESULT:      -6.1      8.875     10.848
REMARK  1 active torsions:
REMARK  status: ('A' for Active; 'I' for Inactive)
REMARK    1  A    between atoms: O_1  and  C_2 
ROOT
HETATM    1  C   LIG     1      16.244  32.416  15.292  1.00  0.00     0.076 A 
HETATM    2  C   LIG     1      16.016  33.377  16.284  1.00  0.00     0.037 A 
HETATM    3  C   LIG     1      14.849  33.357  17.047  1.00  0.00     0.004 A 
HETATM    4  C   LIG     1      13.888  32.372  16.832  1.00  0.00     0.012 A 
HETATM    5  C   LIG     1      14.087  31.394  15.848  1.00  0.00    -0.023 A 
HETATM    6  C   LIG     1      13.111  30.406  15.639  1.00  0.00     0.012 A 
HETATM    7  C   LIG     1      13.298  29.429  14.662  1.00  0.00     0.001 A 
HETATM    8  C   LIG     1      14.455  29.428  13.886  1.00  0.00     0.001 A 
HETATM    9  C   LIG     1      15.438  30.403  14.077  1.00  0.00     0.015 A 
HETATM   10  C   LIG     1      15.273  31.403  15.060  1.00  0.00     0.007 A 
ENDROOT
BRANCH   1  11
HETATM   11  O   LIG     1      17.439  32.511  14.574  1.00  0.00    -0.360 OA
HETATM   12  H   LIG     1      18.344  32.681  14.986  1.00  0.00     0.217 HD
ENDBRANCH   1  11
TORSDOF 1
ENDMDL
MODEL 13
REMARK VINA RESULT:      -6.1      1.684      2.256
REMARK  1 active torsions:
REMARK  status: ('A' for Active; 'I' for Inactive)
REMARK    1  A    between atoms: O_1  and  C_2 
ROOT
HETATM    1  C   LIG     1      17.943  38.520  23.038  1.00  0.00     0.076 A 
HETATM    2  C   LIG     1      17.916  38.645  24.433  1.00  0.00     0.037 A 
HETATM    3  C   LIG     1      17.477  37.594  25.237  1.00  0.00     0.004 A 
HETATM    4  C   LIG     1      17.057  36.398  24.661  1.00  0.00     0.012 A 
HETATM    5  C   LIG     1      17.073  36.241  23.268  1.00  0.00    -0.023 A 
HETATM    6  C   LIG     1      16.648  35.030  22.697  1.00  0.00     0.012 A 
HETATM    7  C   LIG     1      16.658  34.863  21.313  1.00  0.00     0.001 A 
HETATM    8  C   LIG     1      17.093  35.899  20.487  1.00  0.00     0.001 A 
HETATM    9  C   LIG     1      17.520  37.111  21.035  1.00  0.00     0.015 A 
HETATM   10  C   LIG     1      17.518  37.305  22.434  1.00  0.00     0.007 A 
ENDROOT
BRANCH   1  11
HETATM   11  O   LIG     1      18.397  39.622  22.308  1.00  0.00    -0.360 OA
HETATM   12  H   LIG     1      18.079  40.570  22.444  1.00  0.00     0.217 HD
ENDBRANCH   1  11
TORSDOF 1
ENDMDL
MODEL 14
REMARK VINA RESULT:      -6.0      8.890     11.148
REMARK  1 active torsions:
REMARK  status: ('A' for Active; 'I' for Inactive)
REMARK    1  A    between atoms: O_1  and  C_2 
ROOT
HETATM    1  C   LIG     1      15.837  31.431  13.962  1.00  0.00     0.076 A 
HETATM    2  C   LIG     1      15.315  30.294  13.334  1.00  0.00     0.037 A 
HETATM    3  C   LIG     1      14.307  29.542  13.936  1.00  0.00     0.004 A 
HETATM    4  C   LIG     1      13.802  29.916  15.180  1.00  0.00     0.012 A 
HETATM    5  C   LIG     1      14.303  31.049  15.834  1.00  0.00    -0.023 A 
HETATM    6  C   LIG     1      13.787  31.416  17.087  1.00  0.00     0.012 A 
HETATM    7  C   LIG     1      14.278  32.542  17.748  1.00  0.00     0.001 A 
HETATM    8  C   LIG     1      15.286  33.309  17.167  1.00  0.00     0.001 A 
HETATM    9  C   LIG     1      15.813  32.960  15.921  1.00  0.00     0.015 A 
HETATM   10  C   LIG     1      15.333  31.826  15.232  1.00  0.00     0.007 A 
ENDROOT
BRANCH   1  11
HETATM   11  O   LIG     1      16.846  32.126  13.288  1.00  0.00    -0.360 OA
HETATM   12  H   LIG     1      16.747  33.056  12.911  1.00  0.00     0.217 HD
ENDBRANCH   1  11
TORSDOF 1
ENDMDL
MODEL 15
REMARK VINA RESULT:      -6.0      9.098     10.626
REMARK  1 active torsions:
REMARK  status: ('A' for Active; 'I' for Inactive)
REMARK    1  A    between atoms: O_1  and  C_2 
ROOT
HETATM    1  C   LIG     1      15.703  33.132  16.193  1.00  0.00     0.076 A 
HETATM    2  C   LIG     1      16.760  33.525  15.363  1.00  0.00     0.037 A 
HETATM    3  C   LIG     1      17.025  32.850  14.172  1.00  0.00     0.004 A 
HETATM    4  C   LIG     1      16.235  31.768  13.788  1.00  0.00     0.012 A 
HETATM    5  C   LIG     1      15.169  31.351  14.597  1.00  0.00    -0.023 A 
HETATM    6  C   LIG     1      14.379  30.260  14.200  1.00  0.00     0.012 A 
HETATM    7  C   LIG     1      13.316  29.835  14.997  1.00  0.00     0.001 A 
HETATM    8  C   LIG     1      13.032  30.493  16.192  1.00  0.00     0.001 A 
HETATM    9  C   LIG     1      13.806  31.581  16.604  1.00  0.00     0.015 A 
HETATM   10  C   LIG     1      14.888  32.030  15.816  1.00  0.00     0.007 A 
ENDROOT
BRANCH   1  11
HETATM   11  O   LIG     1      15.509  33.863  17.368  1.00  0.00    -0.360 OA
HETATM   12  H   LIG     1      16.252  34.209  17.957  1.00  0.00     0.217 HD
ENDBRANCH   1  11
TORSDOF 1
ENDMDL
MODEL 16
REMARK VINA RESULT:      -5.9      9.045     11.319
REMARK  1 active torsions:
REMARK  status: ('A' for Active; 'I' for Inactive)
REMARK    1  A    between atoms: O_1  and  C_2 
ROOT
HETATM    1  C   LIG     1      14.569  30.368  14.214  1.00  0.00     0.076 A 
HETATM    2  C   LIG     1      15.431  30.769  13.186  1.00  0.00     0.037 A 
HETATM    3  C   LIG     1      16.298  31.847  13.358  1.00  0.00     0.004 A 
HETATM    4  C   LIG     1      16.319  32.545  14.564  1.00  0.00     0.012 A 
HETATM    5  C   LIG     1      15.470  32.167  15.613  1.00  0.00    -0.023 A 
HETATM    6  C   LIG     1      15.500  32.877  16.825  1.00  0.00     0.012 A 
HETATM    7  C   LIG     1      14.658  32.511  17.875  1.00  0.00     0.001 A 
HETATM    8  C   LIG     1      13.782  31.437  17.727  1.00  0.00     0.001 A 
HETATM    9  C   LIG     1      13.737  30.718  16.530  1.00  0.00     0.015 A 
HETATM   10  C   LIG     1      14.579  31.069  15.451  1.00  0.00     0.007 A 
ENDROOT
BRANCH   1  11
HETATM   11  O   LIG     1      13.733  29.278  13.957  1.00  0.00    -0.360 OA
HETATM   12  H   LIG     1      13.511  28.931  13.036  1.00  0.00     0.217 HD
ENDBRANCH   1  11
TORSDOF 1
ENDMDL
MODEL 17
REMARK VINA RESULT:      -5.8      9.573     11.152
REMARK  1 active torsions:
REMARK  status: ('A' for Active; 'I' for Inactive)
REMARK    1  A    between atoms: O_1  and  C_2 
ROOT
HETATM    1  C   LIG     1      14.562  30.350  14.413  1.00  0.00     0.076 A 
HETATM    2  C   LIG     1      13.414  29.901  15.077  1.00  0.00     0.037 A 
HETATM    3  C   LIG     1      12.922  30.576  16.193  1.00  0.00     0.004 A 
HETATM    4  C   LIG     1      13.571  31.715  16.666  1.00  0.00     0.012 A 
HETATM    5  C   LIG     1      14.722  32.190  16.023  1.00  0.00    -0.023 A 
HETATM    6  C   LIG     1      15.367  33.339  16.508  1.00  0.00     0.012 A 
HETATM    7  C   LIG     1      16.514  33.821  15.877  1.00  0.00     0.001 A 
HETATM    8  C   LIG     1      17.026  33.163  14.759  1.00  0.00     0.001 A 
HETATM    9  C   LIG     1      16.398  32.018  14.262  1.00  0.00     0.015 A 
HETATM   10  C   LIG     1      15.236  31.510  14.882  1.00  0.00     0.007 A 
ENDROOT
BRANCH   1  11
HETATM   11  O   LIG     1      14.987  29.613  13.303  1.00  0.00    -0.360 OA
HETATM   12  H   LIG     1      15.862  29.115  13.247  1.00  0.00     0.217 HD
ENDBRANCH   1  11
TORSDOF 1
ENDMDL
