REMARK  1 active torsions:
REMARK  status: ('A' for Active; 'I' for Inactive)
REMARK    1  A    between atoms: O_1  and  C_2 
ROOT
HETATM    1  C   LIG     1      -1.383  -1.027  -0.005  1.00  0.00     0.076 A 
HETATM    2  C   LIG     1      -2.447  -0.132  -0.170  1.00  0.00     0.037 A 
HETATM    3  C   LIG     1      -2.219   1.239  -0.283  1.00  0.00     0.004 A 
HETATM    4  C   LIG     1      -0.920   1.740  -0.234  1.00  0.00     0.012 A 
HETATM    5  C   LIG     1       0.167   0.870  -0.071  1.00  0.00    -0.023 A 
HETATM    6  C   LIG     1       1.472   1.386  -0.023  1.00  0.00     0.012 A 
HETATM    7  C   LIG     1       2.561   0.530   0.140  1.00  0.00     0.001 A 
HETATM    8  C   LIG     1       2.359  -0.844   0.256  1.00  0.00     0.001 A 
HETATM    9  C   LIG     1       1.068  -1.377   0.211  1.00  0.00     0.015 A 
HETATM   10  C   LIG     1      -0.051  -0.532   0.047  1.00  0.00     0.007 A 
ENDROOT
BRANCH   1  11
HETATM   11  O   LIG     1      -1.701  -2.384   0.101  1.00  0.00    -0.360 OA
HETATM   12  H   LIG     1      -1.025  -3.123   0.222  1.00  0.00     0.217 HD
ENDBRANCH   1  11
TORSDOF 1
