MODEL 1
REMARK VINA RESULT:      -8.2      0.000      0.000
REMARK  0 active torsions:
REMARK  status: ('A' for Active; 'I' for Inactive)
ROOT
HETATM    1 BR   LIG     1      16.216  34.901  21.706  1.00  0.00    -0.050 Br
HETATM    2  C   LIG     1      16.806  36.372  22.791  1.00  0.00     0.022 A 
HETATM    3  C   LIG     1      16.762  37.651  22.225  1.00  0.00     0.020 A 
HETATM    4  C   LIG     1      17.175  38.766  22.956  1.00  0.00     0.002 A 
HETATM    5  C   LIG     1      17.637  38.618  24.264  1.00  0.00     0.012 A 
HETATM    6  C   LIG     1      17.690  37.346  24.853  1.00  0.00    -0.025 A 
HETATM    7  C   LIG     1      18.155  37.198  26.169  1.00  0.00     0.012 A 
HETATM    8  C   LIG     1      18.208  35.934  26.758  1.00  0.00     0.001 A 
HETATM    9  C   LIG     1      17.799  34.809  26.040  1.00  0.00     0.001 A 
HETATM   10  C   LIG     1      17.334  34.939  24.729  1.00  0.00     0.013 A 
HETATM   11  C   LIG     1      17.272  36.205  24.117  1.00  0.00    -0.009 A 
ENDROOT
TORSDOF 0
ENDMDL
MODEL 2
REMARK VINA RESULT:      -7.6      2.767      4.319
REMARK  0 active torsions:
REMARK  status: ('A' for Active; 'I' for Inactive)
ROOT
HETATM    1 BR   LIG     1      16.222  34.807  21.295  1.00  0.00    -0.050 Br
HETATM    2  C   LIG     1      16.735  36.607  21.729  1.00  0.00     0.022 A 
HETATM    3  C   LIG     1      16.032  37.249  22.754  1.00  0.00     0.020 A 
HETATM    4  C   LIG     1      16.351  38.557  23.124  1.00  0.00     0.002 A 
HETATM    5  C   LIG     1      17.377  39.241  22.472  1.00  0.00     0.012 A 
HETATM    6  C   LIG     1      18.096  38.618  21.441  1.00  0.00    -0.025 A 
HETATM    7  C   LIG     1      19.129  39.307  20.786  1.00  0.00     0.012 A 
HETATM    8  C   LIG     1      19.846  38.690  19.760  1.00  0.00     0.001 A 
HETATM    9  C   LIG     1      19.539  37.383  19.380  1.00  0.00     0.001 A 
HETATM   10  C   LIG     1      18.513  36.683  20.021  1.00  0.00     0.013 A 
HETATM   11  C   LIG     1      17.779  37.287  21.059  1.00  0.00    -0.009 A 
ENDROOT
TORSDOF 0
ENDMDL
MODEL 3
REMARK VINA RESULT:      -7.4      1.659      2.688
REMARK  0 active torsions:
REMARK  status: ('A' for Active; 'I' for Inactive)
ROOT
HETATM    1 BR   LIG     1      17.403  39.330  22.385  1.00  0.00    -0.050 Br
HETATM    2  C   LIG     1      17.177  37.453  22.726  1.00  0.00     0.022 A 
HETATM    3  C   LIG     1      16.725  36.655  21.669  1.00  0.00     0.020 A 
HETATM    4  C   LIG     1      16.539  35.283  21.843  1.00  0.00     0.002 A 
HETATM    5  C   LIG     1      16.802  34.690  23.078  1.00  0.00     0.012 A 
HETATM    6  C   LIG     1      17.256  35.468  24.152  1.00  0.00    -0.025 A 
HETATM    7  C   LIG     1      17.520  34.871  25.395  1.00  0.00     0.012 A 
HETATM    8  C   LIG     1      17.972  35.644  26.465  1.00  0.00     0.001 A 
HETATM    9  C   LIG     1      18.164  37.017  26.306  1.00  0.00     0.001 A 
HETATM   10  C   LIG     1      17.904  37.628  25.076  1.00  0.00     0.013 A 
HETATM   11  C   LIG     1      17.448  36.866  23.983  1.00  0.00    -0.009 A 
ENDROOT
TORSDOF 0
ENDMDL
MODEL 4
REMARK VINA RESULT:      -7.3      2.562      4.903
REMARK  0 active torsions:
REMARK  status: ('A' for Active; 'I' for Inactive)
ROOT
HETATM    1 BR   LIG     1      17.197  38.185  24.798  1.00  0.00    -0.050 Br
HETATM    2  C   LIG     1      17.295  37.183  23.163  1.00  0.00     0.022 A 
HETATM    3  C   LIG     1      16.763  35.889  23.165  1.00  0.00     0.020 A 
HETATM    4  C   LIG     1      16.799  35.103  22.012  1.00  0.00     0.002 A 
HETATM    5  C   LIG     1      17.368  35.601  20.840  1.00  0.00     0.012 A 
HETATM    6  C   LIG     1      17.908  36.895  20.812  1.00  0.00    -0.025 A 
HETATM    7  C   LIG     1      18.481  37.395  19.632  1.00  0.00     0.012 A 
HETATM    8  C   LIG     1      19.019  38.683  19.603  1.00  0.00     0.001 A 
HETATM    9  C   LIG     1      18.990  39.481  20.747  1.00  0.00     0.001 A 
HETATM   10  C   LIG     1      18.424  38.997  21.931  1.00  0.00     0.013 A 
HETATM   11  C   LIG     1      17.876  37.702  21.982  1.00  0.00    -0.009 A 
ENDROOT
TORSDOF 0
ENDMDL
MODEL 5
REMARK VINA RESULT:      -7.1      1.803      3.457
REMARK  0 active torsions:
REMARK  status: ('A' for Active; 'I' for Inactive)
ROOT
HETATM    1 BR   LIG     1      17.519  34.809  26.250  1.00  0.00    -0.050 Br
HETATM    2  C   LIG     1      17.410  36.322  25.071  1.00  0.00     0.022 A 
HETATM    3  C   LIG     1      17.540  37.594  25.639  1.00  0.00     0.020 A 
HETATM    4  C   LIG     1      17.473  38.739  24.843  1.00  0.00     0.002 A 
HETATM    5  C   LIG     1      17.274  38.627  23.467  1.00  0.00     0.012 A 
HETATM    6  C   LIG     1      17.142  37.363  22.874  1.00  0.00    -0.025 A 
HETATM    7  C   LIG     1      16.942  37.251  21.489  1.00  0.00     0.012 A 
HETATM    8  C   LIG     1      16.811  35.994  20.897  1.00  0.00     0.001 A 
HETATM    9  C   LIG     1      16.876  34.841  21.679  1.00  0.00     0.001 A 
HETATM   10  C   LIG     1      17.074  34.934  23.060  1.00  0.00     0.013 A 
HETATM   11  C   LIG     1      17.210  36.192  23.677  1.00  0.00    -0.009 A 
ENDROOT
TORSDOF 0
ENDMDL
MODEL 6
REMARK VINA RESULT:      -6.6      2.653      4.010
REMARK  0 active torsions:
REMARK  status: ('A' for Active; 'I' for Inactive)
ROOT
HETATM    1 BR   LIG     1      17.343  38.145  25.069  1.00  0.00    -0.050 Br
HETATM    2  C   LIG     1      17.751  38.054  23.194  1.00  0.00     0.022 A 
HETATM    3  C   LIG     1      18.536  39.078  22.654  1.00  0.00     0.020 A 
HETATM    4  C   LIG     1      18.873  39.077  21.299  1.00  0.00     0.002 A 
HETATM    5  C   LIG     1      18.429  38.051  20.466  1.00  0.00     0.012 A 
HETATM    6  C   LIG     1      17.641  37.012  20.984  1.00  0.00    -0.025 A 
HETATM    7  C   LIG     1      17.194  35.980  20.145  1.00  0.00     0.012 A 
HETATM    8  C   LIG     1      16.410  34.946  20.658  1.00  0.00     0.001 A 
HETATM    9  C   LIG     1      16.065  34.933  22.011  1.00  0.00     0.001 A 
HETATM   10  C   LIG     1      16.501  35.954  22.860  1.00  0.00     0.013 A 
HETATM   11  C   LIG     1      17.293  37.006  22.362  1.00  0.00    -0.009 A 
ENDROOT
TORSDOF 0
ENDMDL
MODEL 7
REMARK VINA RESULT:      -6.4      2.204      3.418
REMARK  0 active torsions:
REMARK  status: ('A' for Active; 'I' for Inactive)
ROOT
HETATM    1 BR   LIG     1      16.095  34.594  20.593  1.00  0.00    -0.050 Br
HETATM    2  C   LIG     1      17.237  36.138  20.562  1.00  0.00     0.022 A 
HETATM    3  C   LIG     1      18.005  36.350  19.412  1.00  0.00     0.020 A 
HETATM    4  C   LIG     1      18.856  37.452  19.318  1.00  0.00     0.002 A 
HETATM    5  C   LIG     1      18.952  38.357  20.375  1.00  0.00     0.012 A 
HETATM    6  C   LIG     1      18.192  38.166  21.538  1.00  0.00    -0.025 A 
HETATM    7  C   LIG     1      18.289  39.078  22.601  1.00  0.00     0.012 A 
HETATM    8  C   LIG     1      17.534  38.890  23.760  1.00  0.00     0.001 A 
HETATM    9  C   LIG     1      16.678  37.794  23.868  1.00  0.00     0.001 A 
HETATM   10  C   LIG     1      16.570  36.876  22.819  1.00  0.00     0.013 A 
HETATM   11  C   LIG     1      17.323  37.047  21.642  1.00  0.00    -0.009 A 
ENDROOT
TORSDOF 0
ENDMDL
MODEL 8
REMARK VINA RESULT:      -6.3      2.157      3.464
REMARK  0 active torsions:
REMARK  status: ('A' for Active; 'I' for Inactive)
ROOT
HETATM    1 BR   LIG     1      18.951  39.102  20.048  1.00  0.00    -0.050 Br
HETATM    2  C   LIG     1      18.057  37.651  20.934  1.00  0.00     0.022 A 
HETATM    3  C   LIG     1      17.717  36.535  20.162  1.00  0.00     0.020 A 
HETATM    4  C   LIG     1      17.066  35.443  20.739  1.00  0.00     0.002 A 
HETATM    5  C   LIG     1      16.747  35.453  22.097  1.00  0.00     0.012 A 
HETATM    6  C   LIG     1      17.078  36.560  22.892  1.00  0.00    -0.025 A 
HETATM    7  C   LIG     1      16.757  36.570  24.258  1.00  0.00     0.012 A 
HETATM    8  C   LIG     1      17.086  37.670  25.051  1.00  0.00     0.001 A 
HETATM    9  C   LIG     1      17.737  38.769  24.488  1.00  0.00     0.001 A 
HETATM   10  C   LIG     1      18.063  38.776  23.129  1.00  0.00     0.013 A 
HETATM   11  C   LIG     1      17.741  37.676  22.312  1.00  0.00    -0.009 A 
ENDROOT
TORSDOF 0
ENDMDL
MODEL 9
REMARK VINA RESULT:      -6.3      2.565      3.942
REMARK  0 active torsions:
REMARK  status: ('A' for Active; 'I' for Inactive)
ROOT
HETATM    1 BR   LIG     1      19.043  38.875  19.642  1.00  0.00    -0.050 Br
HETATM    2  C   LIG     1      18.248  38.225  21.265  1.00  0.00     0.022 A 
HETATM    3  C   LIG     1      18.463  38.967  22.432  1.00  0.00     0.020 A 
HETATM    4  C   LIG     1      17.915  38.555  23.648  1.00  0.00     0.002 A 
HETATM    5  C   LIG     1      17.144  37.395  23.714  1.00  0.00     0.012 A 
HETATM    6  C   LIG     1      16.913  36.634  22.558  1.00  0.00    -0.025 A 
HETATM    7  C   LIG     1      16.137  35.466  22.625  1.00  0.00     0.012 A 
HETATM    8  C   LIG     1      15.907  34.708  21.477  1.00  0.00     0.001 A 
HETATM    9  C   LIG     1      16.447  35.107  20.254  1.00  0.00     0.001 A 
HETATM   10  C   LIG     1      17.223  36.267  20.170  1.00  0.00     0.013 A 
HETATM   11  C   LIG     1      17.468  37.046  21.316  1.00  0.00    -0.009 A 
ENDROOT
TORSDOF 0
ENDMDL
MODEL 10
REMARK VINA RESULT:      -6.1      8.957     10.676
REMARK  0 active torsions:
REMARK  status: ('A' for Active; 'I' for Inactive)
ROOT
HETATM    1 BR   LIG     1      17.570  33.615  14.057  1.00  0.00    -0.050 Br
HETATM    2  C   LIG     1      16.248  32.247  14.323  1.00  0.00     0.022 A 
HETATM    3  C   LIG     1      16.031  31.346  13.274  1.00  0.00     0.020 A 
HETATM    4  C   LIG     1      15.087  30.325  13.398  1.00  0.00     0.002 A 
HETATM    5  C   LIG     1      14.346  30.192  14.572  1.00  0.00     0.012 A 
HETATM    6  C   LIG     1      14.546  31.082  15.637  1.00  0.00    -0.025 A 
HETATM    7  C   LIG     1      13.799  30.947  16.819  1.00  0.00     0.012 A 
HETATM    8  C   LIG     1      13.997  31.832  17.880  1.00  0.00     0.001 A 
HETATM    9  C   LIG     1      14.937  32.857  17.772  1.00  0.00     0.001 A 
HETATM   10  C   LIG     1      15.688  33.006  16.602  1.00  0.00     0.013 A 
HETATM   11  C   LIG     1      15.505  32.124  15.520  1.00  0.00    -0.009 A 
ENDROOT
TORSDOF 0
ENDMDL
MODEL 11
REMARK VINA RESULT:      -5.9      2.146      2.898
REMARK  0 active torsions:
REMARK  status: ('A' for Active; 'I' for Inactive)
ROOT
HETATM    1 BR   LIG     1      18.653  36.917  18.829  1.00  0.00    -0.050 Br
HETATM    2  C   LIG     1      18.306  37.715  20.542  1.00  0.00     0.022 A 
HETATM    3  C   LIG     1      18.613  39.071  20.697  1.00  0.00     0.020 A 
HETATM    4  C   LIG     1      18.386  39.717  21.913  1.00  0.00     0.002 A 
HETATM    5  C   LIG     1      17.849  39.015  22.992  1.00  0.00     0.012 A 
HETATM    6  C   LIG     1      17.533  37.654  22.862  1.00  0.00    -0.025 A 
HETATM    7  C   LIG     1      16.993  36.948  23.948  1.00  0.00     0.012 A 
HETATM    8  C   LIG     1      16.678  35.595  23.820  1.00  0.00     0.001 A 
HETATM    9  C   LIG     1      16.898  34.935  22.610  1.00  0.00     0.001 A 
HETATM   10  C   LIG     1      17.436  35.624  21.519  1.00  0.00     0.013 A 
HETATM   11  C   LIG     1      17.761  36.989  21.627  1.00  0.00    -0.009 A 
ENDROOT
TORSDOF 0
ENDMDL
MODEL 12
REMARK VINA RESULT:      -5.9      1.070      3.434
REMARK  0 active torsions:
REMARK  status: ('A' for Active; 'I' for Inactive)
ROOT
HETATM    1 BR   LIG     1      16.150  34.543  21.489  1.00  0.00    -0.050 Br
HETATM    2  C   LIG     1      16.890  35.582  22.925  1.00  0.00     0.022 A 
HETATM    3  C   LIG     1      16.929  34.994  24.194  1.00  0.00     0.020 A 
HETATM    4  C   LIG     1      17.454  35.690  25.285  1.00  0.00     0.002 A 
HETATM    5  C   LIG     1      17.946  36.985  25.121  1.00  0.00     0.012 A 
HETATM    6  C   LIG     1      17.919  37.596  23.858  1.00  0.00    -0.025 A 
HETATM    7  C   LIG     1      18.414  38.899  23.694  1.00  0.00     0.012 A 
HETATM    8  C   LIG     1      18.388  39.508  22.439  1.00  0.00     0.001 A 
HETATM    9  C   LIG     1      17.867  38.825  21.339  1.00  0.00     0.001 A 
HETATM   10  C   LIG     1      17.368  37.527  21.486  1.00  0.00     0.013 A 
HETATM   11  C   LIG     1      17.386  36.894  22.743  1.00  0.00    -0.009 A 
ENDROOT
TORSDOF 0
ENDMDL
MODEL 13
REMARK VINA RESULT:      -5.8      9.066     10.596
REMARK  0 active torsions:
REMARK  status: ('A' for Active; 'I' for Inactive)
ROOT
HETATM    1 BR   LIG     1      13.373  28.916  14.184  1.00  0.00    -0.050 Br
HETATM    2  C   LIG     1      14.560  30.414  14.372  1.00  0.00     0.022 A 
HETATM    3  C   LIG     1      15.372  30.735  13.279  1.00  0.00     0.020 A 
HETATM    4  C   LIG     1      16.258  31.812  13.344  1.00  0.00     0.002 A 
HETATM    5  C   LIG     1      16.345  32.582  14.504  1.00  0.00     0.012 A 
HETATM    6  C   LIG     1      15.541  32.280  15.613  1.00  0.00    -0.025 A 
HETATM    7  C   LIG     1      15.629  33.055  16.780  1.00  0.00     0.012 A 
HETATM    8  C   LIG     1      14.829  32.756  17.884  1.00  0.00     0.001 A 
HETATM    9  C   LIG     1      13.938  31.683  17.835  1.00  0.00     0.001 A 
HETATM   10  C   LIG     1      13.839  30.900  16.680  1.00  0.00     0.013 A 
HETATM   11  C   LIG     1      14.636  31.186  15.555  1.00  0.00    -0.009 A 
ENDROOT
TORSDOF 0
ENDMDL
MODEL 14
REMARK VINA RESULT:      -5.7     16.774     17.217
REMARK  0 active torsions:
REMARK  status: ('A' for Active; 'I' for Inactive)
ROOT
HETATM    1 BR   LIG     1       4.211  39.308  35.138  1.00  0.00    -0.050 Br
HETATM    2  C   LIG     1       4.057  40.989  34.222  1.00  0.00     0.022 A 
HETATM    3  C   LIG     1       4.348  42.149  34.949  1.00  0.00     0.020 A 
HETATM    4  C   LIG     1       4.259  43.405  34.348  1.00  0.00     0.002 A 
HETATM    5  C   LIG     1       3.877  43.519  33.011  1.00  0.00     0.012 A 
HETATM    6  C   LIG     1       3.580  42.371  32.262  1.00  0.00    -0.025 A 
HETATM    7  C   LIG     1       3.195  42.487  30.917  1.00  0.00     0.012 A 
HETATM    8  C   LIG     1       2.900  41.346  30.169  1.00  0.00     0.001 A 
HETATM    9  C   LIG     1       2.986  40.082  30.756  1.00  0.00     0.001 A 
HETATM   10  C   LIG     1       3.367  39.950  32.095  1.00  0.00     0.013 A 
HETATM   11  C   LIG     1       3.669  41.088  32.866  1.00  0.00    -0.009 A 
ENDROOT
TORSDOF 0
ENDMDL
MODEL 15
REMARK VINA RESULT:      -5.5     16.805     17.366
REMARK  0 active torsions:
REMARK  status: ('A' for Active; 'I' for Inactive)
ROOT
HETATM    1 BR   LIG     1       2.847  39.703  30.884  1.00  0.00    -0.050 Br
HETATM    2  C   LIG     1       3.456  40.521  32.512  1.00  0.00     0.022 A 
HETATM    3  C   LIG     1       3.732  39.679  33.594  1.00  0.00     0.020 A 
HETATM    4  C   LIG     1       4.179  40.203  34.808  1.00  0.00     0.002 A 
HETATM    5  C   LIG     1       4.356  41.579  34.956  1.00  0.00     0.012 A 
HETATM    6  C   LIG     1       4.087  42.444  33.886  1.00  0.00    -0.025 A 
HETATM    7  C   LIG     1       4.265  43.828  34.036  1.00  0.00     0.012 A 
HETATM    8  C   LIG     1       3.998  44.691  32.972  1.00  0.00     0.001 A 
HETATM    9  C   LIG     1       3.551  44.182  31.752  1.00  0.00     0.001 A 
HETATM   10  C   LIG     1       3.367  42.806  31.586  1.00  0.00     0.013 A 
HETATM   11  C   LIG     1       3.631  41.918  32.647  1.00  0.00    -0.009 A 
ENDROOT
TORSDOF 0
ENDMDL
MODEL 16
REMARK VINA RESULT:      -5.3     16.815     17.188
REMARK  0 active torsions:
REMARK  status: ('A' for Active; 'I' for Inactive)
ROOT
HETATM    1 BR   LIG     1       4.580  41.367  35.287  1.00  0.00    -0.050 Br
HETATM    2  C   LIG     1       4.082  42.318  33.695  1.00  0.00     0.022 A 
HETATM    3  C   LIG     1       4.198  43.712  33.712  1.00  0.00     0.020 A 
HETATM    4  C   LIG     1       3.855  44.469  32.591  1.00  0.00     0.002 A 
HETATM    5  C   LIG     1       3.390  43.841  31.435  1.00  0.00     0.012 A 
HETATM    6  C   LIG     1       3.265  42.445  31.393  1.00  0.00    -0.025 A 
HETATM    7  C   LIG     1       2.797  41.814  30.229  1.00  0.00     0.012 A 
HETATM    8  C   LIG     1       2.672  40.424  30.185  1.00  0.00     0.001 A 
HETATM    9  C   LIG     1       3.012  39.654  31.298  1.00  0.00     0.001 A 
HETATM   10  C   LIG     1       3.479  40.267  32.464  1.00  0.00     0.013 A 
HETATM   11  C   LIG     1       3.613  41.667  32.530  1.00  0.00    -0.009 A 
ENDROOT
TORSDOF 0
ENDMDL
