MODEL 1
REMARK VINA RESULT:      -8.4      0.000      0.000
REMARK  0 active torsions:
REMARK  status: ('A' for Active; 'I' for Inactive)
ROOT
HETATM    1  C   LIG     1      16.672  36.818  24.252  1.00  0.00     0.228 C 
HETATM    2  C   LIG     1      17.341  35.434  24.097  1.00  0.00     0.036 C 
HETATM    3  C   LIG     1      17.915  34.932  25.438  1.00  0.00     0.004 C 
HETATM    4  C   LIG     1      18.142  36.060  26.457  1.00  0.00     0.030 C 
HETATM    5  C   LIG     1      18.611  37.340  25.757  1.00  0.00     0.273 C 
HETATM    6  N   LIG     1      17.636  37.844  24.753  1.00  0.00     0.093 N 
HETATM    7  C   LIG     1      18.339  38.592  23.686  1.00  0.00     0.279 C 
HETATM    8  C   LIG     1      17.380  39.175  22.603  1.00  0.00     0.048 C 
HETATM    9  C   LIG     1      17.706  38.602  21.194  1.00  0.00     0.228 C 
HETATM   10  C   LIG     1      19.103  39.065  20.687  1.00  0.00     0.036 C 
HETATM   11  C   LIG     1      20.033  37.886  20.375  1.00  0.00     0.004 C 
HETATM   12  C   LIG     1      19.346  36.867  19.461  1.00  0.00     0.030 C 
HETATM   13  C   LIG     1      17.899  36.554  19.894  1.00  0.00     0.273 C 
HETATM   14  N   LIG     1      17.590  37.121  21.223  1.00  0.00     0.093 N 
HETATM   15  C   LIG     1      16.230  36.707  21.640  1.00  0.00     0.279 C 
HETATM   16  C   LIG     1      15.924  38.832  22.928  1.00  0.00     0.017 C 
HETATM   17  C   LIG     1      15.836  37.307  23.017  1.00  0.00     0.048 C 
ENDROOT
TORSDOF 0
ENDMDL
MODEL 2
REMARK VINA RESULT:      -7.9      0.902      4.844
REMARK  0 active torsions:
REMARK  status: ('A' for Active; 'I' for Inactive)
ROOT
HETATM    1  C   LIG     1      17.472  38.365  21.461  1.00  0.00     0.228 C 
HETATM    2  C   LIG     1      18.860  38.910  21.866  1.00  0.00     0.036 C 
HETATM    3  C   LIG     1      19.827  38.938  20.665  1.00  0.00     0.004 C 
HETATM    4  C   LIG     1      19.399  38.002  19.524  1.00  0.00     0.030 C 
HETATM    5  C   LIG     1      18.768  36.720  20.078  1.00  0.00     0.273 C 
HETATM    6  N   LIG     1      17.562  36.979  20.911  1.00  0.00     0.093 N 
HETATM    7  C   LIG     1      17.399  35.910  21.922  1.00  0.00     0.279 C 
HETATM    8  C   LIG     1      16.140  36.097  22.824  1.00  0.00     0.048 C 
HETATM    9  C   LIG     1      16.534  36.235  24.322  1.00  0.00     0.228 C 
HETATM   10  C   LIG     1      17.154  34.923  24.884  1.00  0.00     0.036 C 
HETATM   11  C   LIG     1      18.568  35.133  25.439  1.00  0.00     0.004 C 
HETATM   12  C   LIG     1      18.607  36.309  26.420  1.00  0.00     0.030 C 
HETATM   13  C   LIG     1      17.838  37.543  25.906  1.00  0.00     0.273 C 
HETATM   14  N   LIG     1      17.447  37.395  24.489  1.00  0.00     0.093 N 
HETATM   15  C   LIG     1      16.807  38.643  24.012  1.00  0.00     0.279 C 
HETATM   16  C   LIG     1      15.368  37.356  22.419  1.00  0.00     0.017 C 
HETATM   17  C   LIG     1      16.341  38.531  22.536  1.00  0.00     0.048 C 
ENDROOT
TORSDOF 0
ENDMDL
