REMARK  0 active torsions:
REMARK  status: ('A' for Active; 'I' for Inactive)
ROOT
HETATM    1  C   LIG     1      -1.809  -0.477  -0.579  1.00  0.00     0.228 C 
HETATM    2  C   LIG     1      -1.840  -1.217   0.776  1.00  0.00     0.036 C 
HETATM    3  C   LIG     1      -3.079  -0.823   1.606  1.00  0.00     0.004 C 
HETATM    4  C   LIG     1      -3.700   0.512   1.165  1.00  0.00     0.030 C 
HETATM    5  C   LIG     1      -2.613   1.503   0.736  1.00  0.00     0.273 C 
HETATM    6  N   LIG     1      -1.788   1.006  -0.398  1.00  0.00     0.093 N 
HETATM    7  C   LIG     1      -0.430   1.594  -0.340  1.00  0.00     0.279 C 
HETATM    8  C   LIG     1       0.493   1.138  -1.512  1.00  0.00     0.048 C 
HETATM    9  C   LIG     1       1.752   0.395  -0.983  1.00  0.00     0.228 C 
HETATM   10  C   LIG     1       2.686   1.339  -0.171  1.00  0.00     0.036 C 
HETATM   11  C   LIG     1       2.917   0.844   1.262  1.00  0.00     0.004 C 
HETATM   12  C   LIG     1       3.353  -0.624   1.276  1.00  0.00     0.030 C 
HETATM   13  C   LIG     1       2.513  -1.507   0.330  1.00  0.00     0.273 C 
HETATM   14  N   LIG     1       1.331  -0.787  -0.187  1.00  0.00     0.093 N 
HETATM   15  C   LIG     1       0.503  -1.704  -1.003  1.00  0.00     0.279 C 
HETATM   16  C   LIG     1      -0.256   0.190  -2.453  1.00  0.00     0.017 C 
HETATM   17  C   LIG     1      -0.737  -0.989  -1.605  1.00  0.00     0.048 C 
ENDROOT
TORSDOF 0
