MODEL 1
REMARK VINA RESULT:      -7.7      0.000      0.000
REMARK  2 active torsions:
REMARK  status: ('A' for Active; 'I' for Inactive)
REMARK    1  A    between atoms: O_1  and  C_2 
REMARK    2  A    between atoms: C_7  and  C_8 
ROOT
HETATM    1  C   LIG     1      17.204  37.268  24.571  1.00  0.00     0.076 A 
HETATM    2  C   LIG     1      17.576  37.455  25.911  1.00  0.00     0.037 A 
HETATM    3  C   LIG     1      17.964  36.366  26.695  1.00  0.00     0.003 A 
HETATM    4  C   LIG     1      17.986  35.083  26.146  1.00  0.00     0.001 A 
HETATM    5  C   LIG     1      17.615  34.884  24.814  1.00  0.00     0.015 A 
HETATM    6  C   LIG     1      17.212  35.971  24.015  1.00  0.00     0.007 A 
ENDROOT
BRANCH   6   7
HETATM    7  C   LIG     1      16.810  35.735  22.608  1.00  0.00    -0.023 A 
HETATM    8  C   LIG     1      15.716  34.903  22.304  1.00  0.00     0.012 A 
HETATM    9  C   LIG     1      15.347  34.678  20.974  1.00  0.00     0.001 A 
HETATM   10  C   LIG     1      16.068  35.273  19.936  1.00  0.00     0.000 A 
HETATM   11  C   LIG     1      17.160  36.095  20.226  1.00  0.00     0.001 A 
HETATM   12  C   LIG     1      17.533  36.323  21.554  1.00  0.00     0.012 A 
ENDBRANCH   6   7
BRANCH   1  13
HETATM   13  O   LIG     1      16.849  38.368  23.791  1.00  0.00    -0.360 OA
HETATM   14  H   LIG     1      17.548  38.972  23.374  1.00  0.00     0.217 HD
ENDBRANCH   1  13
TORSDOF 2
ENDMDL
MODEL 2
REMARK VINA RESULT:      -7.6      1.099      4.758
REMARK  2 active torsions:
REMARK  status: ('A' for Active; 'I' for Inactive)
REMARK    1  A    between atoms: O_1  and  C_2 
REMARK    2  A    between atoms: C_7  and  C_8 
ROOT
HETATM    1  C   LIG     1      15.568  36.706  22.695  1.00  0.00     0.076 A 
HETATM    2  C   LIG     1      14.948  36.530  21.449  1.00  0.00     0.037 A 
HETATM    3  C   LIG     1      15.357  35.503  20.596  1.00  0.00     0.003 A 
HETATM    4  C   LIG     1      16.387  34.643  20.981  1.00  0.00     0.001 A 
HETATM    5  C   LIG     1      17.014  34.811  22.218  1.00  0.00     0.015 A 
HETATM    6  C   LIG     1      16.618  35.848  23.084  1.00  0.00     0.007 A 
ENDROOT
BRANCH   6   7
HETATM    7  C   LIG     1      17.306  36.015  24.387  1.00  0.00    -0.023 A 
HETATM    8  C   LIG     1      17.824  37.268  24.769  1.00  0.00     0.012 A 
HETATM    9  C   LIG     1      18.479  37.417  25.995  1.00  0.00     0.001 A 
HETATM   10  C   LIG     1      18.630  36.320  26.848  1.00  0.00     0.000 A 
HETATM   11  C   LIG     1      18.126  35.072  26.475  1.00  0.00     0.001 A 
HETATM   12  C   LIG     1      17.470  34.917  25.250  1.00  0.00     0.012 A 
ENDBRANCH   6   7
BRANCH   1  13
HETATM   13  O   LIG     1      15.128  37.716  23.551  1.00  0.00    -0.360 OA
HETATM   14  H   LIG     1      15.137  37.601  24.558  1.00  0.00     0.217 HD
ENDBRANCH   1  13
TORSDOF 2
ENDMDL
MODEL 3
REMARK VINA RESULT:      -7.1      0.750      4.790
REMARK  2 active torsions:
REMARK  status: ('A' for Active; 'I' for Inactive)
REMARK    1  A    between atoms: O_1  and  C_2 
REMARK    2  A    between atoms: C_7  and  C_8 
ROOT
HETATM    1  C   LIG     1      17.296  36.494  21.447  1.00  0.00     0.076 A 
HETATM    2  C   LIG     1      16.913  36.202  20.129  1.00  0.00     0.037 A 
HETATM    3  C   LIG     1      16.034  35.150  19.866  1.00  0.00     0.003 A 
HETATM    4  C   LIG     1      15.529  34.382  20.917  1.00  0.00     0.001 A 
HETATM    5  C   LIG     1      15.906  34.662  22.233  1.00  0.00     0.015 A 
HETATM    6  C   LIG     1      16.799  35.714  22.512  1.00  0.00     0.007 A 
ENDROOT
BRANCH   6   7
HETATM    7  C   LIG     1      17.196  35.985  23.915  1.00  0.00    -0.023 A 
HETATM    8  C   LIG     1      17.275  37.305  24.395  1.00  0.00     0.012 A 
HETATM    9  C   LIG     1      17.659  37.554  25.717  1.00  0.00     0.001 A 
HETATM   10  C   LIG     1      17.971  36.492  26.568  1.00  0.00     0.000 A 
HETATM   11  C   LIG     1      17.902  35.178  26.099  1.00  0.00     0.001 A 
HETATM   12  C   LIG     1      17.520  34.923  24.779  1.00  0.00     0.012 A 
ENDBRANCH   6   7
BRANCH   1  13
HETATM   13  O   LIG     1      18.150  37.568  21.697  1.00  0.00    -0.360 OA
HETATM   14  H   LIG     1      19.025  37.679  21.198  1.00  0.00     0.217 HD
ENDBRANCH   1  13
TORSDOF 2
ENDMDL
MODEL 4
REMARK VINA RESULT:      -7.0      5.295      7.581
REMARK  2 active torsions:
REMARK  status: ('A' for Active; 'I' for Inactive)
REMARK    1  A    between atoms: O_1  and  C_2 
REMARK    2  A    between atoms: C_7  and  C_8 
ROOT
HETATM    1  C   LIG     1      15.240  34.043  17.666  1.00  0.00     0.076 A 
HETATM    2  C   LIG     1      15.516  34.806  18.812  1.00  0.00     0.037 A 
HETATM    3  C   LIG     1      15.563  34.199  20.069  1.00  0.00     0.003 A 
HETATM    4  C   LIG     1      15.338  32.827  20.191  1.00  0.00     0.001 A 
HETATM    5  C   LIG     1      15.059  32.059  19.058  1.00  0.00     0.015 A 
HETATM    6  C   LIG     1      14.998  32.659  17.786  1.00  0.00     0.007 A 
ENDROOT
BRANCH   6   7
HETATM    7  C   LIG     1      14.688  31.826  16.598  1.00  0.00    -0.023 A 
HETATM    8  C   LIG     1      13.479  31.111  16.520  1.00  0.00     0.012 A 
HETATM    9  C   LIG     1      13.196  30.321  15.401  1.00  0.00     0.001 A 
HETATM   10  C   LIG     1      14.118  30.232  14.355  1.00  0.00     0.000 A 
HETATM   11  C   LIG     1      15.324  30.932  14.426  1.00  0.00     0.001 A 
HETATM   12  C   LIG     1      15.612  31.724  15.543  1.00  0.00     0.012 A 
ENDBRANCH   6   7
BRANCH   1  13
HETATM   13  O   LIG     1      15.227  34.657  16.414  1.00  0.00    -0.360 OA
HETATM   14  H   LIG     1      15.523  34.166  15.578  1.00  0.00     0.217 HD
ENDBRANCH   1  13
TORSDOF 2
ENDMDL
MODEL 5
REMARK VINA RESULT:      -6.8      2.545      4.271
REMARK  2 active torsions:
REMARK  status: ('A' for Active; 'I' for Inactive)
REMARK    1  A    between atoms: O_1  and  C_2 
REMARK    2  A    between atoms: C_7  and  C_8 
ROOT
HETATM    1  C   LIG     1      18.105  38.424  21.132  1.00  0.00     0.076 A 
HETATM    2  C   LIG     1      19.082  39.387  20.841  1.00  0.00     0.037 A 
HETATM    3  C   LIG     1      20.102  39.104  19.929  1.00  0.00     0.003 A 
HETATM    4  C   LIG     1      20.153  37.859  19.301  1.00  0.00     0.001 A 
HETATM    5  C   LIG     1      19.187  36.891  19.586  1.00  0.00     0.015 A 
HETATM    6  C   LIG     1      18.159  37.158  20.510  1.00  0.00     0.007 A 
ENDROOT
BRANCH   6   7
HETATM    7  C   LIG     1      17.151  36.112  20.807  1.00  0.00    -0.023 A 
HETATM    8  C   LIG     1      16.975  35.638  22.121  1.00  0.00     0.012 A 
HETATM    9  C   LIG     1      16.029  34.644  22.393  1.00  0.00     0.001 A 
HETATM   10  C   LIG     1      15.256  34.111  21.358  1.00  0.00     0.000 A 
HETATM   11  C   LIG     1      15.428  34.569  20.050  1.00  0.00     0.001 A 
HETATM   12  C   LIG     1      16.372  35.562  19.773  1.00  0.00     0.012 A 
ENDBRANCH   6   7
BRANCH   1  13
HETATM   13  O   LIG     1      17.074  38.730  22.020  1.00  0.00    -0.360 OA
HETATM   14  H   LIG     1      16.880  39.685  22.301  1.00  0.00     0.217 HD
ENDBRANCH   1  13
TORSDOF 2
ENDMDL
MODEL 6
REMARK VINA RESULT:      -6.7      5.435      8.906
REMARK  2 active torsions:
REMARK  status: ('A' for Active; 'I' for Inactive)
REMARK    1  A    between atoms: O_1  and  C_2 
REMARK    2  A    between atoms: C_7  and  C_8 
ROOT
HETATM    1  C   LIG     1      15.759  31.825  15.571  1.00  0.00     0.076 A 
HETATM    2  C   LIG     1      15.488  31.021  14.454  1.00  0.00     0.037 A 
HETATM    3  C   LIG     1      14.286  30.315  14.367  1.00  0.00     0.003 A 
HETATM    4  C   LIG     1      13.345  30.408  15.394  1.00  0.00     0.001 A 
HETATM    5  C   LIG     1      13.606  31.203  16.513  1.00  0.00     0.015 A 
HETATM    6  C   LIG     1      14.817  31.912  16.619  1.00  0.00     0.007 A 
ENDROOT
BRANCH   6   7
HETATM    7  C   LIG     1      15.078  32.740  17.821  1.00  0.00    -0.023 A 
HETATM    8  C   LIG     1      15.201  34.138  17.716  1.00  0.00     0.012 A 
HETATM    9  C   LIG     1      15.456  34.912  18.852  1.00  0.00     0.001 A 
HETATM   10  C   LIG     1      15.596  34.300  20.100  1.00  0.00     0.000 A 
HETATM   11  C   LIG     1      15.483  32.913  20.214  1.00  0.00     0.001 A 
HETATM   12  C   LIG     1      15.228  32.134  19.081  1.00  0.00     0.012 A 
ENDBRANCH   6   7
BRANCH   1  13
HETATM   13  O   LIG     1      16.949  32.549  15.631  1.00  0.00    -0.360 OA
HETATM   14  H   LIG     1      17.204  33.087  16.451  1.00  0.00     0.217 HD
ENDBRANCH   1  13
TORSDOF 2
ENDMDL
MODEL 7
REMARK VINA RESULT:      -6.6      5.700      9.080
REMARK  2 active torsions:
REMARK  status: ('A' for Active; 'I' for Inactive)
REMARK    1  A    between atoms: O_1  and  C_2 
REMARK    2  A    between atoms: C_7  and  C_8 
ROOT
HETATM    1  C   LIG     1      13.362  31.191  16.299  1.00  0.00     0.076 A 
HETATM    2  C   LIG     1      13.082  30.366  15.199  1.00  0.00     0.037 A 
HETATM    3  C   LIG     1      14.086  30.046  14.283  1.00  0.00     0.003 A 
HETATM    4  C   LIG     1      15.378  30.547  14.459  1.00  0.00     0.001 A 
HETATM    5  C   LIG     1      15.667  31.372  15.548  1.00  0.00     0.015 A 
HETATM    6  C   LIG     1      14.662  31.710  16.474  1.00  0.00     0.007 A 
ENDROOT
BRANCH   6   7
HETATM    7  C   LIG     1      14.989  32.598  17.616  1.00  0.00    -0.023 A 
HETATM    8  C   LIG     1      15.142  32.072  18.913  1.00  0.00     0.012 A 
HETATM    9  C   LIG     1      15.441  32.916  19.987  1.00  0.00     0.001 A 
HETATM   10  C   LIG     1      15.584  34.291  19.780  1.00  0.00     0.000 A 
HETATM   11  C   LIG     1      15.426  34.824  18.498  1.00  0.00     0.001 A 
HETATM   12  C   LIG     1      15.127  33.984  17.421  1.00  0.00     0.012 A 
ENDBRANCH   6   7
BRANCH   1  13
HETATM   13  O   LIG     1      12.357  31.476  17.223  1.00  0.00    -0.360 OA
HETATM   14  H   LIG     1      12.456  31.242  18.204  1.00  0.00     0.217 HD
ENDBRANCH   1  13
TORSDOF 2
ENDMDL
MODEL 8
REMARK VINA RESULT:      -6.3      2.253      3.312
REMARK  2 active torsions:
REMARK  status: ('A' for Active; 'I' for Inactive)
REMARK    1  A    between atoms: O_1  and  C_2 
REMARK    2  A    between atoms: C_7  and  C_8 
ROOT
HETATM    1  C   LIG     1      17.304  36.200  22.975  1.00  0.00     0.076 A 
HETATM    2  C   LIG     1      16.964  35.900  24.303  1.00  0.00     0.037 A 
HETATM    3  C   LIG     1      17.105  36.865  25.302  1.00  0.00     0.003 A 
HETATM    4  C   LIG     1      17.584  38.137  24.984  1.00  0.00     0.001 A 
HETATM    5  C   LIG     1      17.930  38.445  23.665  1.00  0.00     0.015 A 
HETATM    6  C   LIG     1      17.802  37.479  22.649  1.00  0.00     0.007 A 
ENDROOT
BRANCH   6   7
HETATM    7  C   LIG     1      18.186  37.824  21.259  1.00  0.00    -0.023 A 
HETATM    8  C   LIG     1      18.301  36.822  20.277  1.00  0.00     0.012 A 
HETATM    9  C   LIG     1      18.673  37.153  18.971  1.00  0.00     0.001 A 
HETATM   10  C   LIG     1      18.938  38.483  18.633  1.00  0.00     0.000 A 
HETATM   11  C   LIG     1      18.834  39.483  19.601  1.00  0.00     0.001 A 
HETATM   12  C   LIG     1      18.463  39.158  20.909  1.00  0.00     0.012 A 
ENDBRANCH   6   7
BRANCH   1  13
HETATM   13  O   LIG     1      17.129  35.237  21.982  1.00  0.00    -0.360 OA
HETATM   14  H   LIG     1      17.042  34.252  22.205  1.00  0.00     0.217 HD
ENDBRANCH   1  13
TORSDOF 2
ENDMDL
MODEL 9
REMARK VINA RESULT:      -6.3      8.214     10.693
REMARK  2 active torsions:
REMARK  status: ('A' for Active; 'I' for Inactive)
REMARK    1  A    between atoms: O_1  and  C_2 
REMARK    2  A    between atoms: C_7  and  C_8 
ROOT
HETATM    1  C   LIG     1      15.729  31.872  14.784  1.00  0.00     0.076 A 
HETATM    2  C   LIG     1      15.969  33.085  15.446  1.00  0.00     0.037 A 
HETATM    3  C   LIG     1      15.252  33.414  16.599  1.00  0.00     0.003 A 
HETATM    4  C   LIG     1      14.291  32.533  17.100  1.00  0.00     0.001 A 
HETATM    5  C   LIG     1      14.042  31.324  16.445  1.00  0.00     0.015 A 
HETATM    6  C   LIG     1      14.750  30.984  15.277  1.00  0.00     0.007 A 
ENDROOT
BRANCH   6   7
HETATM    7  C   LIG     1      14.460  29.701  14.593  1.00  0.00    -0.023 A 
HETATM    8  C   LIG     1      13.131  29.281  14.390  1.00  0.00     0.012 A 
HETATM    9  C   LIG     1      12.865  28.066  13.751  1.00  0.00     0.001 A 
HETATM   10  C   LIG     1      13.917  27.257  13.315  1.00  0.00     0.000 A 
HETATM   11  C   LIG     1      15.239  27.662  13.518  1.00  0.00     0.001 A 
HETATM   12  C   LIG     1      15.511  28.875  14.156  1.00  0.00     0.012 A 
ENDBRANCH   6   7
BRANCH   1  13
HETATM   13  O   LIG     1      16.474  31.543  13.652  1.00  0.00    -0.360 OA
HETATM   14  H   LIG     1      16.434  32.102  12.808  1.00  0.00     0.217 HD
ENDBRANCH   1  13
TORSDOF 2
ENDMDL
MODEL 10
REMARK VINA RESULT:      -6.3      2.935      4.784
REMARK  2 active torsions:
REMARK  status: ('A' for Active; 'I' for Inactive)
REMARK    1  A    between atoms: O_1  and  C_2 
REMARK    2  A    between atoms: C_7  and  C_8 
ROOT
HETATM    1  C   LIG     1      16.488  35.433  19.835  1.00  0.00     0.076 A 
HETATM    2  C   LIG     1      15.553  34.451  20.195  1.00  0.00     0.037 A 
HETATM    3  C   LIG     1      15.298  34.180  21.541  1.00  0.00     0.003 A 
HETATM    4  C   LIG     1      15.974  34.887  22.537  1.00  0.00     0.001 A 
HETATM    5  C   LIG     1      16.910  35.864  22.189  1.00  0.00     0.015 A 
HETATM    6  C   LIG     1      17.184  36.142  20.837  1.00  0.00     0.007 A 
ENDROOT
BRANCH   6   7
HETATM    7  C   LIG     1      18.190  37.175  20.491  1.00  0.00    -0.023 A 
HETATM    8  C   LIG     1      18.072  38.486  20.988  1.00  0.00     0.012 A 
HETATM    9  C   LIG     1      19.019  39.458  20.651  1.00  0.00     0.001 A 
HETATM   10  C   LIG     1      20.089  39.132  19.812  1.00  0.00     0.000 A 
HETATM   11  C   LIG     1      20.211  37.836  19.308  1.00  0.00     0.001 A 
HETATM   12  C   LIG     1      19.267  36.861  19.642  1.00  0.00     0.012 A 
ENDBRANCH   6   7
BRANCH   1  13
HETATM   13  O   LIG     1      16.709  35.716  18.487  1.00  0.00    -0.360 OA
HETATM   14  H   LIG     1      17.176  35.057  17.875  1.00  0.00     0.217 HD
ENDBRANCH   1  13
TORSDOF 2
ENDMDL
MODEL 11
REMARK VINA RESULT:      -6.3      2.195      5.168
REMARK  2 active torsions:
REMARK  status: ('A' for Active; 'I' for Inactive)
REMARK    1  A    between atoms: O_1  and  C_2 
REMARK    2  A    between atoms: C_7  and  C_8 
ROOT
HETATM    1  C   LIG     1      18.645  39.108  20.854  1.00  0.00     0.076 A 
HETATM    2  C   LIG     1      19.024  39.388  19.533  1.00  0.00     0.037 A 
HETATM    3  C   LIG     1      18.981  38.388  18.559  1.00  0.00     0.003 A 
HETATM    4  C   LIG     1      18.558  37.101  18.897  1.00  0.00     0.001 A 
HETATM    5  C   LIG     1      18.182  36.810  20.211  1.00  0.00     0.015 A 
HETATM    6  C   LIG     1      18.229  37.806  21.205  1.00  0.00     0.007 A 
ENDROOT
BRANCH   6   7
HETATM    7  C   LIG     1      17.837  37.472  22.595  1.00  0.00    -0.023 A 
HETATM    8  C   LIG     1      18.008  38.407  23.633  1.00  0.00     0.012 A 
HETATM    9  C   LIG     1      17.645  38.082  24.944  1.00  0.00     0.001 A 
HETATM   10  C   LIG     1      17.114  36.822  25.232  1.00  0.00     0.000 A 
HETATM   11  C   LIG     1      16.947  35.884  24.211  1.00  0.00     0.001 A 
HETATM   12  C   LIG     1      17.309  36.204  22.899  1.00  0.00     0.012 A 
ENDBRANCH   6   7
BRANCH   1  13
HETATM   13  O   LIG     1      18.662  40.124  21.809  1.00  0.00    -0.360 OA
HETATM   14  H   LIG     1      18.784  41.096  21.549  1.00  0.00     0.217 HD
ENDBRANCH   1  13
TORSDOF 2
ENDMDL
MODEL 12
REMARK VINA RESULT:      -6.2      1.325      2.382
REMARK  2 active torsions:
REMARK  status: ('A' for Active; 'I' for Inactive)
REMARK    1  A    between atoms: O_1  and  C_2 
REMARK    2  A    between atoms: C_7  and  C_8 
ROOT
HETATM    1  C   LIG     1      17.337  35.961  24.637  1.00  0.00     0.076 A 
HETATM    2  C   LIG     1      17.670  36.537  25.872  1.00  0.00     0.037 A 
HETATM    3  C   LIG     1      17.660  37.925  26.029  1.00  0.00     0.003 A 
HETATM    4  C   LIG     1      17.317  38.747  24.955  1.00  0.00     0.001 A 
HETATM    5  C   LIG     1      16.988  38.185  23.719  1.00  0.00     0.015 A 
HETATM    6  C   LIG     1      17.002  36.788  23.544  1.00  0.00     0.007 A 
ENDROOT
BRANCH   6   7
HETATM    7  C   LIG     1      16.660  36.213  22.220  1.00  0.00    -0.023 A 
HETATM    8  C   LIG     1      17.476  36.459  21.100  1.00  0.00     0.012 A 
HETATM    9  C   LIG     1      17.143  35.922  19.852  1.00  0.00     0.001 A 
HETATM   10  C   LIG     1      15.995  35.139  19.710  1.00  0.00     0.000 A 
HETATM   11  C   LIG     1      15.175  34.895  20.814  1.00  0.00     0.001 A 
HETATM   12  C   LIG     1      15.502  35.430  22.063  1.00  0.00     0.012 A 
ENDBRANCH   6   7
BRANCH   1  13
HETATM   13  O   LIG     1      17.319  34.573  24.503  1.00  0.00    -0.360 OA
HETATM   14  H   LIG     1      17.751  34.109  23.713  1.00  0.00     0.217 HD
ENDBRANCH   1  13
TORSDOF 2
ENDMDL
MODEL 13
REMARK VINA RESULT:      -6.2      3.311      5.773
REMARK  2 active torsions:
REMARK  status: ('A' for Active; 'I' for Inactive)
REMARK    1  A    between atoms: O_1  and  C_2 
REMARK    2  A    between atoms: C_7  and  C_8 
ROOT
HETATM    1  C   LIG     1      15.418  33.880  18.561  1.00  0.00     0.076 A 
HETATM    2  C   LIG     1      15.052  32.718  17.866  1.00  0.00     0.037 A 
HETATM    3  C   LIG     1      14.676  31.567  18.563  1.00  0.00     0.003 A 
HETATM    4  C   LIG     1      14.662  31.569  19.959  1.00  0.00     0.001 A 
HETATM    5  C   LIG     1      15.029  32.720  20.661  1.00  0.00     0.015 A 
HETATM    6  C   LIG     1      15.418  33.883  19.972  1.00  0.00     0.007 A 
ENDROOT
BRANCH   6   7
HETATM    7  C   LIG     1      15.815  35.089  20.738  1.00  0.00    -0.023 A 
HETATM    8  C   LIG     1      14.856  35.835  21.450  1.00  0.00     0.012 A 
HETATM    9  C   LIG     1      15.235  36.976  22.163  1.00  0.00     0.001 A 
HETATM   10  C   LIG     1      16.570  37.387  22.169  1.00  0.00     0.000 A 
HETATM   11  C   LIG     1      17.528  36.659  21.460  1.00  0.00     0.001 A 
HETATM   12  C   LIG     1      17.155  35.517  20.745  1.00  0.00     0.012 A 
ENDBRANCH   6   7
BRANCH   1  13
HETATM   13  O   LIG     1      15.760  35.031  17.852  1.00  0.00    -0.360 OA
HETATM   14  H   LIG     1      16.083  35.869  18.323  1.00  0.00     0.217 HD
ENDBRANCH   1  13
TORSDOF 2
ENDMDL
MODEL 14
REMARK VINA RESULT:      -5.8      1.948      3.016
REMARK  2 active torsions:
REMARK  status: ('A' for Active; 'I' for Inactive)
REMARK    1  A    between atoms: O_1  and  C_2 
REMARK    2  A    between atoms: C_7  and  C_8 
ROOT
HETATM    1  C   LIG     1      17.209  35.504  24.117  1.00  0.00     0.076 A 
HETATM    2  C   LIG     1      17.093  34.802  25.326  1.00  0.00     0.037 A 
HETATM    3  C   LIG     1      17.580  35.355  26.513  1.00  0.00     0.003 A 
HETATM    4  C   LIG     1      18.185  36.613  26.501  1.00  0.00     0.001 A 
HETATM    5  C   LIG     1      18.308  37.320  25.302  1.00  0.00     0.015 A 
HETATM    6  C   LIG     1      17.830  36.771  24.097  1.00  0.00     0.007 A 
ENDROOT
BRANCH   6   7
HETATM    7  C   LIG     1      17.983  37.533  22.834  1.00  0.00    -0.023 A 
HETATM    8  C   LIG     1      18.206  38.922  22.858  1.00  0.00     0.012 A 
HETATM    9  C   LIG     1      18.341  39.636  21.663  1.00  0.00     0.001 A 
HETATM   10  C   LIG     1      18.248  38.974  20.436  1.00  0.00     0.000 A 
HETATM   11  C   LIG     1      18.020  37.597  20.402  1.00  0.00     0.001 A 
HETATM   12  C   LIG     1      17.884  36.878  21.594  1.00  0.00     0.012 A 
ENDBRANCH   6   7
BRANCH   1  13
HETATM   13  O   LIG     1      16.689  34.954  22.946  1.00  0.00    -0.360 OA
HETATM   14  H   LIG     1      16.864  33.989  22.688  1.00  0.00     0.217 HD
ENDBRANCH   1  13
TORSDOF 2
ENDMDL
MODEL 15
REMARK VINA RESULT:      -5.8      1.898      4.776
REMARK  2 active torsions:
REMARK  status: ('A' for Active; 'I' for Inactive)
REMARK    1  A    between atoms: O_1  and  C_2 
REMARK    2  A    between atoms: C_7  and  C_8 
ROOT
HETATM    1  C   LIG     1      17.656  36.756  21.789  1.00  0.00     0.076 A 
HETATM    2  C   LIG     1      17.740  37.492  20.598  1.00  0.00     0.037 A 
HETATM    3  C   LIG     1      18.078  38.847  20.628  1.00  0.00     0.003 A 
HETATM    4  C   LIG     1      18.337  39.476  21.847  1.00  0.00     0.001 A 
HETATM    5  C   LIG     1      18.253  38.753  23.040  1.00  0.00     0.015 A 
HETATM    6  C   LIG     1      17.904  37.389  23.025  1.00  0.00     0.007 A 
ENDROOT
BRANCH   6   7
HETATM    7  C   LIG     1      17.809  36.644  24.304  1.00  0.00    -0.023 A 
HETATM    8  C   LIG     1      17.162  35.395  24.360  1.00  0.00     0.012 A 
HETATM    9  C   LIG     1      17.068  34.702  25.571  1.00  0.00     0.001 A 
HETATM   10  C   LIG     1      17.612  35.249  26.736  1.00  0.00     0.000 A 
HETATM   11  C   LIG     1      18.249  36.491  26.692  1.00  0.00     0.001 A 
HETATM   12  C   LIG     1      18.346  37.189  25.484  1.00  0.00     0.012 A 
ENDBRANCH   6   7
BRANCH   1  13
HETATM   13  O   LIG     1      17.349  35.396  21.741  1.00  0.00    -0.360 OA
HETATM   14  H   LIG     1      17.316  34.829  22.581  1.00  0.00     0.217 HD
ENDBRANCH   1  13
TORSDOF 2
ENDMDL
MODEL 16
REMARK VINA RESULT:      -5.7      9.124     10.350
REMARK  2 active torsions:
REMARK  status: ('A' for Active; 'I' for Inactive)
REMARK    1  A    between atoms: O_1  and  C_2 
REMARK    2  A    between atoms: C_7  and  C_8 
ROOT
HETATM    1  C   LIG     1      14.559  30.559  14.492  1.00  0.00     0.076 A 
HETATM    2  C   LIG     1      13.423  29.964  15.063  1.00  0.00     0.037 A 
HETATM    3  C   LIG     1      12.869  30.483  16.235  1.00  0.00     0.003 A 
HETATM    4  C   LIG     1      13.443  31.600  16.845  1.00  0.00     0.001 A 
HETATM    5  C   LIG     1      14.576  32.198  16.288  1.00  0.00     0.015 A 
HETATM    6  C   LIG     1      15.151  31.680  15.112  1.00  0.00     0.007 A 
ENDROOT
BRANCH   6   7
HETATM    7  C   LIG     1      16.360  32.324  14.544  1.00  0.00    -0.023 A 
HETATM    8  C   LIG     1      17.493  32.555  15.347  1.00  0.00     0.012 A 
HETATM    9  C   LIG     1      18.627  33.170  14.808  1.00  0.00     0.001 A 
HETATM   10  C   LIG     1      18.641  33.565  13.468  1.00  0.00     0.000 A 
HETATM   11  C   LIG     1      17.519  33.346  12.665  1.00  0.00     0.001 A 
HETATM   12  C   LIG     1      16.382  32.732  13.199  1.00  0.00     0.012 A 
ENDBRANCH   6   7
BRANCH   1  13
HETATM   13  O   LIG     1      15.083  30.051  13.304  1.00  0.00    -0.360 OA
HETATM   14  H   LIG     1      15.038  30.573  12.437  1.00  0.00     0.217 HD
ENDBRANCH   1  13
TORSDOF 2
ENDMDL
MODEL 17
REMARK VINA RESULT:      -5.6      1.765      4.621
REMARK  2 active torsions:
REMARK  status: ('A' for Active; 'I' for Inactive)
REMARK    1  A    between atoms: O_1  and  C_2 
REMARK    2  A    between atoms: C_7  and  C_8 
ROOT
HETATM    1  C   LIG     1      17.391  38.759  23.260  1.00  0.00     0.076 A 
HETATM    2  C   LIG     1      17.416  39.511  22.076  1.00  0.00     0.037 A 
HETATM    3  C   LIG     1      17.725  38.901  20.859  1.00  0.00     0.003 A 
HETATM    4  C   LIG     1      18.012  37.535  20.815  1.00  0.00     0.001 A 
HETATM    5  C   LIG     1      17.994  36.778  21.988  1.00  0.00     0.015 A 
HETATM    6  C   LIG     1      17.693  37.381  23.224  1.00  0.00     0.007 A 
ENDROOT
BRANCH   6   7
HETATM    7  C   LIG     1      17.692  36.560  24.459  1.00  0.00    -0.023 A 
HETATM    8  C   LIG     1      18.341  37.015  25.622  1.00  0.00     0.012 A 
HETATM    9  C   LIG     1      18.344  36.232  26.781  1.00  0.00     0.001 A 
HETATM   10  C   LIG     1      17.706  34.989  26.788  1.00  0.00     0.000 A 
HETATM   11  C   LIG     1      17.066  34.525  25.637  1.00  0.00     0.001 A 
HETATM   12  C   LIG     1      17.060  35.304  24.476  1.00  0.00     0.012 A 
ENDBRANCH   6   7
BRANCH   1  13
HETATM   13  O   LIG     1      17.049  39.375  24.464  1.00  0.00    -0.360 OA
HETATM   14  H   LIG     1      16.337  40.095  24.509  1.00  0.00     0.217 HD
ENDBRANCH   1  13
TORSDOF 2
ENDMDL
MODEL 18
REMARK VINA RESULT:      -5.5      3.033      4.471
REMARK  2 active torsions:
REMARK  status: ('A' for Active; 'I' for Inactive)
REMARK    1  A    between atoms: O_1  and  C_2 
REMARK    2  A    between atoms: C_7  and  C_8 
ROOT
HETATM    1  C   LIG     1      15.693  36.525  21.821  1.00  0.00     0.076 A 
HETATM    2  C   LIG     1      14.681  35.577  22.033  1.00  0.00     0.037 A 
HETATM    3  C   LIG     1      14.732  34.336  21.394  1.00  0.00     0.003 A 
HETATM    4  C   LIG     1      15.794  34.033  20.540  1.00  0.00     0.001 A 
HETATM    5  C   LIG     1      16.805  34.971  20.319  1.00  0.00     0.015 A 
HETATM    6  C   LIG     1      16.762  36.229  20.949  1.00  0.00     0.007 A 
ENDROOT
BRANCH   6   7
HETATM    7  C   LIG     1      17.839  37.214  20.691  1.00  0.00    -0.023 A 
HETATM    8  C   LIG     1      18.788  36.989  19.675  1.00  0.00     0.012 A 
HETATM    9  C   LIG     1      19.807  37.918  19.443  1.00  0.00     0.001 A 
HETATM   10  C   LIG     1      19.893  39.075  20.222  1.00  0.00     0.000 A 
HETATM   11  C   LIG     1      18.961  39.304  21.236  1.00  0.00     0.001 A 
HETATM   12  C   LIG     1      17.940  38.378  21.473  1.00  0.00     0.012 A 
ENDBRANCH   6   7
BRANCH   1  13
HETATM   13  O   LIG     1      15.646  37.748  22.491  1.00  0.00    -0.360 OA
HETATM   14  H   LIG     1      16.462  38.134  22.951  1.00  0.00     0.217 HD
ENDBRANCH   1  13
TORSDOF 2
ENDMDL
MODEL 19
REMARK VINA RESULT:      -5.4      1.613      2.337
REMARK  2 active torsions:
REMARK  status: ('A' for Active; 'I' for Inactive)
REMARK    1  A    between atoms: O_1  and  C_2 
REMARK    2  A    between atoms: C_7  and  C_8 
ROOT
HETATM    1  C   LIG     1      18.123  37.236  24.924  1.00  0.00     0.076 A 
HETATM    2  C   LIG     1      17.922  36.620  26.169  1.00  0.00     0.037 A 
HETATM    3  C   LIG     1      17.327  35.359  26.245  1.00  0.00     0.003 A 
HETATM    4  C   LIG     1      16.929  34.703  25.079  1.00  0.00     0.001 A 
HETATM    5  C   LIG     1      17.120  35.308  23.834  1.00  0.00     0.015 A 
HETATM    6  C   LIG     1      17.710  36.583  23.743  1.00  0.00     0.007 A 
ENDROOT
BRANCH   6   7
HETATM    7  C   LIG     1      17.892  37.212  22.413  1.00  0.00    -0.023 A 
HETATM    8  C   LIG     1      17.979  36.421  21.252  1.00  0.00     0.012 A 
HETATM    9  C   LIG     1      18.159  37.020  20.001  1.00  0.00     0.001 A 
HETATM   10  C   LIG     1      18.260  38.409  19.897  1.00  0.00     0.000 A 
HETATM   11  C   LIG     1      18.183  39.202  21.044  1.00  0.00     0.001 A 
HETATM   12  C   LIG     1      18.003  38.609  22.297  1.00  0.00     0.012 A 
ENDBRANCH   6   7
BRANCH   1  13
HETATM   13  O   LIG     1      18.747  38.481  24.861  1.00  0.00    -0.360 OA
HETATM   14  H   LIG     1      18.419  39.269  25.408  1.00  0.00     0.217 HD
ENDBRANCH   1  13
TORSDOF 2
ENDMDL
MODEL 20
REMARK VINA RESULT:      -5.4      8.365     10.436
REMARK  2 active torsions:
REMARK  status: ('A' for Active; 'I' for Inactive)
REMARK    1  A    between atoms: O_1  and  C_2 
REMARK    2  A    between atoms: C_7  and  C_8 
ROOT
HETATM    1  C   LIG     1      16.600  33.679  15.181  1.00  0.00     0.076 A 
HETATM    2  C   LIG     1      15.645  33.092  16.024  1.00  0.00     0.037 A 
HETATM    3  C   LIG     1      15.047  31.879  15.676  1.00  0.00     0.003 A 
HETATM    4  C   LIG     1      15.400  31.242  14.484  1.00  0.00     0.001 A 
HETATM    5  C   LIG     1      16.347  31.820  13.635  1.00  0.00     0.015 A 
HETATM    6  C   LIG     1      16.951  33.047  13.969  1.00  0.00     0.007 A 
ENDROOT
BRANCH   6   7
HETATM    7  C   LIG     1      17.945  33.649  13.048  1.00  0.00    -0.023 A 
HETATM    8  C   LIG     1      17.527  34.416  11.944  1.00  0.00     0.012 A 
HETATM    9  C   LIG     1      18.470  34.972  11.073  1.00  0.00     0.001 A 
HETATM   10  C   LIG     1      19.834  34.765  11.292  1.00  0.00     0.000 A 
HETATM   11  C   LIG     1      20.258  34.000  12.380  1.00  0.00     0.001 A 
HETATM   12  C   LIG     1      19.321  33.440  13.253  1.00  0.00     0.012 A 
ENDBRANCH   6   7
BRANCH   1  13
HETATM   13  O   LIG     1      17.212  34.875  15.557  1.00  0.00    -0.360 OA
HETATM   14  H   LIG     1      17.170  35.218  16.509  1.00  0.00     0.217 HD
ENDBRANCH   1  13
TORSDOF 2
ENDMDL
