REMARK  2 active torsions:
REMARK  status: ('A' for Active; 'I' for Inactive)
REMARK    1  A    between atoms: O_1  and  C_2 
REMARK    2  A    between atoms: C_7  and  C_8 
ROOT
HETATM    1  C   LIG     1      -1.363  -1.121  -0.240  1.00  0.00     0.076 A 
HETATM    2  C   LIG     1      -2.764  -1.175  -0.189  1.00  0.00     0.037 A 
HETATM    3  C   LIG     1      -3.503  -0.033   0.128  1.00  0.00     0.003 A 
HETATM    4  C   LIG     1      -2.849   1.171   0.395  1.00  0.00     0.001 A 
HETATM    5  C   LIG     1      -1.454   1.235   0.351  1.00  0.00     0.015 A 
HETATM    6  C   LIG     1      -0.696   0.090   0.042  1.00  0.00     0.007 A 
ENDROOT
BRANCH   6   7
HETATM    7  C   LIG     1       0.784   0.178   0.013  1.00  0.00    -0.023 A 
HETATM    8  C   LIG     1       1.572  -0.761   0.705  1.00  0.00     0.012 A 
HETATM    9  C   LIG     1       2.967  -0.667   0.681  1.00  0.00     0.001 A 
HETATM   10  C   LIG     1       3.588   0.365  -0.027  1.00  0.00     0.000 A 
HETATM   11  C   LIG     1       2.815   1.306  -0.711  1.00  0.00     0.001 A 
HETATM   12  C   LIG     1       1.420   1.217  -0.690  1.00  0.00     0.012 A 
ENDBRANCH   6   7
BRANCH   1  13
HETATM   13  O   LIG     1      -0.639  -2.261  -0.589  1.00  0.00    -0.360 OA
HETATM   14  H   LIG     1      -1.099  -3.139  -0.800  1.00  0.00     0.217 HD
ENDBRANCH   1  13
TORSDOF 2
