REMARK  3 active torsions:
REMARK  status: ('A' for Active; 'I' for Inactive)
REMARK    1  A    between atoms: O_1  and  C_2 
REMARK    2  A    between atoms: C_2  and  C_9 
REMARK    3  A    between atoms: C_2  and  C_3 
ROOT
HETATM    1  C   LIG     1      -0.095  -0.999   1.215  1.00  0.00     0.184 C 
ENDROOT
BRANCH   1   2
HETATM    2  O   LIG     1      -0.149  -2.400   1.087  1.00  0.00    -0.386 OA
HETATM    3  H   LIG     1      -0.246  -2.624   0.125  1.00  0.00     0.210 HD
ENDBRANCH   1   2
BRANCH   1   4
HETATM    4  C   LIG     1       1.217  -0.417   0.711  1.00  0.00    -0.025 A 
HETATM    5  C   LIG     1       2.199  -1.207   0.079  1.00  0.00     0.010 A 
HETATM    6  C   LIG     1       3.392  -0.631  -0.366  1.00  0.00     0.001 A 
HETATM    7  C   LIG     1       3.624   0.734  -0.183  1.00  0.00     0.000 A 
HETATM    8  C   LIG     1       2.665   1.526   0.450  1.00  0.00     0.001 A 
HETATM    9  C   LIG     1       1.470   0.956   0.897  1.00  0.00     0.010 A 
ENDBRANCH   1   4
BRANCH   1  10
HETATM   10  C   LIG     1      -1.286  -0.348   0.533  1.00  0.00    -0.025 A 
HETATM   11  C   LIG     1      -1.414  -0.371  -0.869  1.00  0.00     0.010 A 
HETATM   12  C   LIG     1      -2.510   0.235  -1.489  1.00  0.00     0.001 A 
HETATM   13  C   LIG     1      -3.487   0.871  -0.720  1.00  0.00     0.000 A 
HETATM   14  C   LIG     1      -3.370   0.901   0.672  1.00  0.00     0.001 A 
HETATM   15  C   LIG     1      -2.275   0.296   1.297  1.00  0.00     0.010 A 
ENDBRANCH   1  10
TORSDOF 3
