MODEL 1
REMARK VINA RESULT:      -9.7      0.000      0.000
REMARK  3 active torsions:
REMARK  status: ('A' for Active; 'I' for Inactive)
REMARK    1  A    between atoms: O_1  and  C_2 
REMARK    2  A    between atoms: C_2  and  C_9 
REMARK    3  A    between atoms: C_2  and  C_3 
ROOT
HETATM    1  C   LIG     1      16.350  37.162  22.910  1.00  0.00     0.184 C 
ENDROOT
BRANCH   1   2
HETATM    2  O   LIG     1      15.477  38.224  23.214  1.00  0.00    -0.386 OA
HETATM    3  H   LIG     1      14.906  37.952  23.979  1.00  0.00     0.210 HD
ENDBRANCH   1   2
BRANCH   1   4
HETATM    4  C   LIG     1      17.361  37.528  21.834  1.00  0.00    -0.025 A 
HETATM    5  C   LIG     1      17.940  38.810  21.747  1.00  0.00     0.010 A 
HETATM    6  C   LIG     1      18.863  39.104  20.740  1.00  0.00     0.001 A 
HETATM    7  C   LIG     1      19.217  38.128  19.806  1.00  0.00     0.000 A 
HETATM    8  C   LIG     1      18.644  36.857  19.873  1.00  0.00     0.001 A 
HETATM    9  C   LIG     1      17.721  36.557  20.878  1.00  0.00     0.010 A 
ENDBRANCH   1   4
BRANCH   1  10
HETATM   10  C   LIG     1      17.038  36.653  24.165  1.00  0.00    -0.025 A 
HETATM   11  C   LIG     1      17.108  35.274  24.439  1.00  0.00     0.010 A 
HETATM   12  C   LIG     1      17.738  34.815  25.599  1.00  0.00     0.001 A 
HETATM   13  C   LIG     1      18.303  35.723  26.496  1.00  0.00     0.000 A 
HETATM   14  C   LIG     1      18.239  37.094  26.235  1.00  0.00     0.001 A 
HETATM   15  C   LIG     1      17.609  37.559  25.076  1.00  0.00     0.010 A 
ENDBRANCH   1  10
TORSDOF 3
ENDMDL
MODEL 2
REMARK VINA RESULT:      -9.6      0.553      4.929
REMARK  3 active torsions:
REMARK  status: ('A' for Active; 'I' for Inactive)
REMARK    1  A    between atoms: O_1  and  C_2 
REMARK    2  A    between atoms: C_2  and  C_9 
REMARK    3  A    between atoms: C_2  and  C_3 
ROOT
HETATM    1  C   LIG     1      16.740  38.111  23.386  1.00  0.00     0.184 C 
ENDROOT
BRANCH   1   2
HETATM    2  O   LIG     1      15.372  37.945  23.098  1.00  0.00    -0.386 OA
HETATM    3  H   LIG     1      15.288  37.386  22.283  1.00  0.00     0.210 HD
ENDBRANCH   1   2
BRANCH   1   4
HETATM    4  C   LIG     1      17.248  37.107  24.410  1.00  0.00    -0.025 A 
HETATM    5  C   LIG     1      16.983  35.726  24.308  1.00  0.00     0.010 A 
HETATM    6  C   LIG     1      17.466  34.839  25.274  1.00  0.00     0.001 A 
HETATM    7  C   LIG     1      18.212  35.316  26.354  1.00  0.00     0.000 A 
HETATM    8  C   LIG     1      18.473  36.682  26.474  1.00  0.00     0.001 A 
HETATM    9  C   LIG     1      17.992  37.574  25.511  1.00  0.00     0.010 A 
ENDBRANCH   1   4
BRANCH   1  10
HETATM   10  C   LIG     1      17.569  38.067  22.113  1.00  0.00    -0.025 A 
HETATM   11  C   LIG     1      17.541  36.936  21.275  1.00  0.00     0.010 A 
HETATM   12  C   LIG     1      18.310  36.902  20.108  1.00  0.00     0.001 A 
HETATM   13  C   LIG     1      19.115  37.991  19.767  1.00  0.00     0.000 A 
HETATM   14  C   LIG     1      19.151  39.118  20.592  1.00  0.00     0.001 A 
HETATM   15  C   LIG     1      18.383  39.157  21.760  1.00  0.00     0.010 A 
ENDBRANCH   1  10
TORSDOF 3
ENDMDL
MODEL 3
REMARK VINA RESULT:      -9.0      0.675      4.950
REMARK  3 active torsions:
REMARK  status: ('A' for Active; 'I' for Inactive)
REMARK    1  A    between atoms: O_1  and  C_2 
REMARK    2  A    between atoms: C_2  and  C_9 
REMARK    3  A    between atoms: C_2  and  C_3 
ROOT
HETATM    1  C   LIG     1      16.956  38.455  23.016  1.00  0.00     0.184 C 
ENDROOT
BRANCH   1   2
HETATM    2  O   LIG     1      15.578  38.466  22.727  1.00  0.00    -0.386 OA
HETATM    3  H   LIG     1      15.107  37.938  23.422  1.00  0.00     0.210 HD
ENDBRANCH   1   2
BRANCH   1   4
HETATM    4  C   LIG     1      17.317  37.447  24.096  1.00  0.00    -0.025 A 
HETATM    5  C   LIG     1      17.911  37.829  25.317  1.00  0.00     0.010 A 
HETATM    6  C   LIG     1      18.229  36.869  26.280  1.00  0.00     0.001 A 
HETATM    7  C   LIG     1      17.966  35.518  26.040  1.00  0.00     0.000 A 
HETATM    8  C   LIG     1      17.388  35.124  24.832  1.00  0.00     0.001 A 
HETATM    9  C   LIG     1      17.068  36.080  23.864  1.00  0.00     0.010 A 
ENDBRANCH   1   4
BRANCH   1  10
HETATM   10  C   LIG     1      17.771  38.228  21.754  1.00  0.00    -0.025 A 
HETATM   11  C   LIG     1      18.667  39.209  21.290  1.00  0.00     0.010 A 
HETATM   12  C   LIG     1      19.409  38.994  20.125  1.00  0.00     0.001 A 
HETATM   13  C   LIG     1      19.264  37.803  19.411  1.00  0.00     0.000 A 
HETATM   14  C   LIG     1      18.376  36.823  19.861  1.00  0.00     0.001 A 
HETATM   15  C   LIG     1      17.632  37.033  21.027  1.00  0.00     0.010 A 
ENDBRANCH   1  10
TORSDOF 3
ENDMDL
MODEL 4
REMARK VINA RESULT:      -8.4      1.331      4.974
REMARK  3 active torsions:
REMARK  status: ('A' for Active; 'I' for Inactive)
REMARK    1  A    between atoms: O_1  and  C_2 
REMARK    2  A    between atoms: C_2  and  C_9 
REMARK    3  A    between atoms: C_2  and  C_3 
ROOT
HETATM    1  C   LIG     1      16.506  37.618  23.413  1.00  0.00     0.184 C 
ENDROOT
BRANCH   1   2
HETATM    2  O   LIG     1      15.245  38.109  23.800  1.00  0.00    -0.386 OA
HETATM    3  H   LIG     1      15.234  39.092  23.660  1.00  0.00     0.210 HD
ENDBRANCH   1   2
BRANCH   1   4
HETATM    4  C   LIG     1      17.188  36.826  24.518  1.00  0.00    -0.025 A 
HETATM    5  C   LIG     1      17.125  35.419  24.586  1.00  0.00     0.010 A 
HETATM    6  C   LIG     1      17.764  34.731  25.621  1.00  0.00     0.001 A 
HETATM    7  C   LIG     1      18.468  35.434  26.602  1.00  0.00     0.000 A 
HETATM    8  C   LIG     1      18.531  36.827  26.552  1.00  0.00     0.001 A 
HETATM    9  C   LIG     1      17.894  37.521  25.519  1.00  0.00     0.010 A 
ENDBRANCH   1   4
BRANCH   1  10
HETATM   10  C   LIG     1      16.400  36.805  22.135  1.00  0.00    -0.025 A 
HETATM   11  C   LIG     1      15.222  36.098  21.827  1.00  0.00     0.010 A 
HETATM   12  C   LIG     1      15.134  35.347  20.652  1.00  0.00     0.001 A 
HETATM   13  C   LIG     1      16.218  35.291  19.773  1.00  0.00     0.000 A 
HETATM   14  C   LIG     1      17.393  35.988  20.068  1.00  0.00     0.001 A 
HETATM   15  C   LIG     1      17.485  36.741  21.243  1.00  0.00     0.010 A 
ENDBRANCH   1  10
TORSDOF 3
ENDMDL
MODEL 5
REMARK VINA RESULT:      -8.1      1.399      2.203
REMARK  3 active torsions:
REMARK  status: ('A' for Active; 'I' for Inactive)
REMARK    1  A    between atoms: O_1  and  C_2 
REMARK    2  A    between atoms: C_2  and  C_9 
REMARK    3  A    between atoms: C_2  and  C_3 
ROOT
HETATM    1  C   LIG     1      16.319  37.625  23.600  1.00  0.00     0.184 C 
ENDROOT
BRANCH   1   2
HETATM    2  O   LIG     1      16.828  38.927  23.430  1.00  0.00    -0.386 OA
HETATM    3  H   LIG     1      17.806  38.906  23.602  1.00  0.00     0.210 HD
ENDBRANCH   1   2
BRANCH   1   4
HETATM    4  C   LIG     1      16.263  36.844  22.296  1.00  0.00    -0.025 A 
HETATM    5  C   LIG     1      15.115  36.134  21.891  1.00  0.00     0.010 A 
HETATM    6  C   LIG     1      15.109  35.427  20.686  1.00  0.00     0.001 A 
HETATM    7  C   LIG     1      16.244  35.414  19.873  1.00  0.00     0.000 A 
HETATM    8  C   LIG     1      17.392  36.105  20.267  1.00  0.00     0.001 A 
HETATM    9  C   LIG     1      17.404  36.814  21.471  1.00  0.00     0.010 A 
ENDBRANCH   1   4
BRANCH   1  10
HETATM   10  C   LIG     1      17.103  36.873  24.661  1.00  0.00    -0.025 A 
HETATM   11  C   LIG     1      17.065  35.467  24.724  1.00  0.00     0.010 A 
HETATM   12  C   LIG     1      17.785  34.783  25.706  1.00  0.00     0.001 A 
HETATM   13  C   LIG     1      18.548  35.491  26.637  1.00  0.00     0.000 A 
HETATM   14  C   LIG     1      18.593  36.887  26.586  1.00  0.00     0.001 A 
HETATM   15  C   LIG     1      17.874  37.576  25.604  1.00  0.00     0.010 A 
ENDBRANCH   1  10
TORSDOF 3
ENDMDL
