MODEL 1
REMARK VINA RESULT:      -5.6      0.000      0.000
REMARK  0 active torsions:
REMARK  status: ('A' for Active; 'I' for Inactive)
ROOT
HETATM    1  C   LIG     1      17.166  36.089  24.129  1.00  0.00     0.121 A 
HETATM    2  N   LIG     1      17.452  34.935  24.785  1.00  0.00    -0.254 NA
HETATM    3  C   LIG     1      17.888  34.958  26.074  1.00  0.00     0.136 A 
HETATM    4  C   LIG     1      18.044  36.184  26.730  1.00  0.00     0.138 A 
HETATM    5  N   LIG     1      17.757  37.340  26.071  1.00  0.00    -0.238 NA
HETATM    6  C   LIG     1      17.321  37.321  24.786  1.00  0.00     0.180 A 
HETATM    7  N   LIG     1      17.036  38.477  24.133  1.00  0.00    -0.220 NA
HETATM    8  C   LIG     1      16.601  38.455  22.845  1.00  0.00     0.235 A 
HETATM    9  N   LIG     1      16.444  37.271  22.194  1.00  0.00    -0.252 NA
HETATM   10  C   LIG     1      16.718  36.090  22.809  1.00  0.00     0.153 A 
ENDROOT
TORSDOF 0
ENDMDL
MODEL 2
REMARK VINA RESULT:      -5.5      0.871      3.925
REMARK  0 active torsions:
REMARK  status: ('A' for Active; 'I' for Inactive)
ROOT
HETATM    1  C   LIG     1      17.253  37.257  24.750  1.00  0.00     0.121 A 
HETATM    2  N   LIG     1      16.910  38.367  24.045  1.00  0.00    -0.254 NA
HETATM    3  C   LIG     1      16.457  38.264  22.766  1.00  0.00     0.136 A 
HETATM    4  C   LIG     1      16.342  37.003  22.170  1.00  0.00     0.138 A 
HETATM    5  N   LIG     1      16.686  35.892  22.878  1.00  0.00    -0.238 NA
HETATM    6  C   LIG     1      17.138  35.990  24.154  1.00  0.00     0.180 A 
HETATM    7  N   LIG     1      17.479  34.879  24.856  1.00  0.00    -0.220 NA
HETATM    8  C   LIG     1      17.933  34.979  26.134  1.00  0.00     0.235 A 
HETATM    9  N   LIG     1      18.049  36.198  26.727  1.00  0.00    -0.252 NA
HETATM   10  C   LIG     1      17.719  37.337  26.061  1.00  0.00     0.153 A 
ENDROOT
TORSDOF 0
ENDMDL
MODEL 3
REMARK VINA RESULT:      -5.4      0.863      3.352
REMARK  0 active torsions:
REMARK  status: ('A' for Active; 'I' for Inactive)
ROOT
HETATM    1  C   LIG     1      17.157  36.098  24.181  1.00  0.00     0.121 A 
HETATM    2  N   LIG     1      16.699  36.080  22.902  1.00  0.00    -0.254 NA
HETATM    3  C   LIG     1      16.421  37.240  22.247  1.00  0.00     0.136 A 
HETATM    4  C   LIG     1      16.610  38.464  22.898  1.00  0.00     0.138 A 
HETATM    5  N   LIG     1      17.070  38.481  24.179  1.00  0.00    -0.238 NA
HETATM    6  C   LIG     1      17.348  37.325  24.835  1.00  0.00     0.180 A 
HETATM    7  N   LIG     1      17.806  37.347  26.113  1.00  0.00    -0.220 NA
HETATM    8  C   LIG     1      18.084  36.189  26.769  1.00  0.00     0.235 A 
HETATM    9  N   LIG     1      17.906  34.991  26.150  1.00  0.00    -0.252 NA
HETATM   10  C   LIG     1      17.448  34.922  24.871  1.00  0.00     0.153 A 
ENDROOT
TORSDOF 0
ENDMDL
MODEL 4
REMARK VINA RESULT:      -5.3      2.996      4.668
REMARK  0 active torsions:
REMARK  status: ('A' for Active; 'I' for Inactive)
ROOT
HETATM    1  C   LIG     1      17.958  38.096  21.291  1.00  0.00     0.121 A 
HETATM    2  N   LIG     1      17.076  37.846  22.294  1.00  0.00    -0.254 NA
HETATM    3  C   LIG     1      16.438  36.648  22.375  1.00  0.00     0.136 A 
HETATM    4  C   LIG     1      16.692  35.661  21.416  1.00  0.00     0.138 A 
HETATM    5  N   LIG     1      17.575  35.912  20.412  1.00  0.00    -0.238 NA
HETATM    6  C   LIG     1      18.215  37.107  20.328  1.00  0.00     0.180 A 
HETATM    7  N   LIG     1      19.096  37.352  19.324  1.00  0.00    -0.220 NA
HETATM    8  C   LIG     1      19.735  38.550  19.241  1.00  0.00     0.235 A 
HETATM    9  N   LIG     1      19.498  39.519  20.166  1.00  0.00    -0.252 NA
HETATM   10  C   LIG     1      18.624  39.316  21.188  1.00  0.00     0.153 A 
ENDROOT
TORSDOF 0
ENDMDL
MODEL 5
REMARK VINA RESULT:      -5.2      2.832      4.816
REMARK  0 active torsions:
REMARK  status: ('A' for Active; 'I' for Inactive)
ROOT
HETATM    1  C   LIG     1      18.022  38.491  21.422  1.00  0.00     0.121 A 
HETATM    2  N   LIG     1      19.038  39.014  20.685  1.00  0.00    -0.254 NA
HETATM    3  C   LIG     1      19.624  38.286  19.696  1.00  0.00     0.136 A 
HETATM    4  C   LIG     1      19.177  36.986  19.435  1.00  0.00     0.138 A 
HETATM    5  N   LIG     1      18.161  36.464  20.173  1.00  0.00    -0.238 NA
HETATM    6  C   LIG     1      17.573  37.187  21.160  1.00  0.00     0.180 A 
HETATM    7  N   LIG     1      16.558  36.661  21.894  1.00  0.00    -0.220 NA
HETATM    8  C   LIG     1      15.970  37.387  22.883  1.00  0.00     0.235 A 
HETATM    9  N   LIG     1      16.394  38.652  23.149  1.00  0.00    -0.252 NA
HETATM   10  C   LIG     1      17.407  39.218  22.439  1.00  0.00     0.153 A 
ENDROOT
TORSDOF 0
ENDMDL
MODEL 6
REMARK VINA RESULT:      -5.1      1.472      3.458
REMARK  0 active torsions:
REMARK  status: ('A' for Active; 'I' for Inactive)
ROOT
HETATM    1  C   LIG     1      17.117  37.425  22.815  1.00  0.00     0.121 A 
HETATM    2  N   LIG     1      17.040  37.202  21.477  1.00  0.00    -0.254 NA
HETATM    3  C   LIG     1      16.957  35.935  20.987  1.00  0.00     0.136 A 
HETATM    4  C   LIG     1      16.951  34.851  21.871  1.00  0.00     0.138 A 
HETATM    5  N   LIG     1      17.028  35.075  23.211  1.00  0.00    -0.238 NA
HETATM    6  C   LIG     1      17.111  36.337  23.703  1.00  0.00     0.180 A 
HETATM    7  N   LIG     1      17.187  36.556  25.042  1.00  0.00    -0.220 NA
HETATM    8  C   LIG     1      17.270  37.821  25.533  1.00  0.00     0.235 A 
HETATM    9  N   LIG     1      17.277  38.887  24.686  1.00  0.00    -0.252 NA
HETATM   10  C   LIG     1      17.202  38.714  23.339  1.00  0.00     0.153 A 
ENDROOT
TORSDOF 0
ENDMDL
MODEL 7
REMARK VINA RESULT:      -5.1      3.035      4.065
REMARK  0 active torsions:
REMARK  status: ('A' for Active; 'I' for Inactive)
ROOT
HETATM    1  C   LIG     1      17.933  37.162  20.765  1.00  0.00     0.121 A 
HETATM    2  N   LIG     1      17.019  36.224  21.127  1.00  0.00    -0.254 NA
HETATM    3  C   LIG     1      16.115  36.478  22.112  1.00  0.00     0.136 A 
HETATM    4  C   LIG     1      16.126  37.719  22.759  1.00  0.00     0.138 A 
HETATM    5  N   LIG     1      17.042  38.657  22.396  1.00  0.00    -0.238 NA
HETATM    6  C   LIG     1      17.945  38.408  21.414  1.00  0.00     0.180 A 
HETATM    7  N   LIG     1      18.857  39.348  21.054  1.00  0.00    -0.220 NA
HETATM    8  C   LIG     1      19.761  39.096  20.071  1.00  0.00     0.235 A 
HETATM    9  N   LIG     1      19.762  37.894  19.432  1.00  0.00    -0.252 NA
HETATM   10  C   LIG     1      18.868  36.924  19.760  1.00  0.00     0.153 A 
ENDROOT
TORSDOF 0
ENDMDL
MODEL 8
REMARK VINA RESULT:      -5.1      2.971      4.492
REMARK  0 active torsions:
REMARK  status: ('A' for Active; 'I' for Inactive)
ROOT
HETATM    1  C   LIG     1      17.834  37.082  20.845  1.00  0.00     0.121 A 
HETATM    2  N   LIG     1      18.698  36.729  19.857  1.00  0.00    -0.254 NA
HETATM    3  C   LIG     1      19.637  37.606  19.410  1.00  0.00     0.136 A 
HETATM    4  C   LIG     1      19.714  38.885  19.973  1.00  0.00     0.138 A 
HETATM    5  N   LIG     1      18.848  39.237  20.962  1.00  0.00    -0.238 NA
HETATM    6  C   LIG     1      17.910  38.365  21.411  1.00  0.00     0.180 A 
HETATM    7  N   LIG     1      17.048  38.721  22.398  1.00  0.00    -0.220 NA
HETATM    8  C   LIG     1      16.109  37.846  22.846  1.00  0.00     0.235 A 
HETATM    9  N   LIG     1      16.022  36.598  22.309  1.00  0.00    -0.252 NA
HETATM   10  C   LIG     1      16.864  36.200  21.318  1.00  0.00     0.153 A 
ENDROOT
TORSDOF 0
ENDMDL
MODEL 9
REMARK VINA RESULT:      -5.0      3.113      5.014
REMARK  0 active torsions:
REMARK  status: ('A' for Active; 'I' for Inactive)
ROOT
HETATM    1  C   LIG     1      17.764  37.719  21.364  1.00  0.00     0.121 A 
HETATM    2  N   LIG     1      18.551  38.826  21.309  1.00  0.00    -0.254 NA
HETATM    3  C   LIG     1      19.499  38.955  20.342  1.00  0.00     0.136 A 
HETATM    4  C   LIG     1      19.665  37.939  19.394  1.00  0.00     0.138 A 
HETATM    5  N   LIG     1      18.877  36.832  19.451  1.00  0.00    -0.238 NA
HETATM    6  C   LIG     1      17.929  36.699  20.414  1.00  0.00     0.180 A 
HETATM    7  N   LIG     1      17.144  35.592  20.466  1.00  0.00    -0.220 NA
HETATM    8  C   LIG     1      16.196  35.460  21.432  1.00  0.00     0.235 A 
HETATM    9  N   LIG     1      16.022  36.440  22.360  1.00  0.00    -0.252 NA
HETATM   10  C   LIG     1      16.786  37.565  22.346  1.00  0.00     0.153 A 
ENDROOT
TORSDOF 0
ENDMDL
MODEL 10
REMARK VINA RESULT:      -5.0      8.774     10.281
REMARK  0 active torsions:
REMARK  status: ('A' for Active; 'I' for Inactive)
ROOT
HETATM    1  C   LIG     1      15.298  31.689  15.123  1.00  0.00     0.121 A 
HETATM    2  N   LIG     1      14.247  30.969  15.595  1.00  0.00    -0.254 NA
HETATM    3  C   LIG     1      13.798  31.147  16.867  1.00  0.00     0.136 A 
HETATM    4  C   LIG     1      14.426  32.081  17.698  1.00  0.00     0.138 A 
HETATM    5  N   LIG     1      15.479  32.802  17.225  1.00  0.00    -0.238 NA
HETATM    6  C   LIG     1      15.929  32.627  15.956  1.00  0.00     0.180 A 
HETATM    7  N   LIG     1      16.980  33.350  15.487  1.00  0.00    -0.220 NA
HETATM    8  C   LIG     1      17.429  33.173  14.216  1.00  0.00     0.235 A 
HETATM    9  N   LIG     1      16.829  32.269  13.396  1.00  0.00    -0.252 NA
HETATM   10  C   LIG     1      15.774  31.524  13.823  1.00  0.00     0.153 A 
ENDROOT
TORSDOF 0
ENDMDL
MODEL 11
REMARK VINA RESULT:      -4.9      9.573     11.177
REMARK  0 active torsions:
REMARK  status: ('A' for Active; 'I' for Inactive)
ROOT
HETATM    1  C   LIG     1      15.886  32.708  15.440  1.00  0.00     0.121 A 
HETATM    2  N   LIG     1      16.702  33.788  15.553  1.00  0.00    -0.254 NA
HETATM    3  C   LIG     1      17.572  34.109  14.558  1.00  0.00     0.136 A 
HETATM    4  C   LIG     1      17.627  33.318  13.405  1.00  0.00     0.138 A 
HETATM    5  N   LIG     1      16.809  32.237  13.292  1.00  0.00    -0.238 NA
HETATM    6  C   LIG     1      15.939  31.914  14.283  1.00  0.00     0.180 A 
HETATM    7  N   LIG     1      15.124  30.834  14.165  1.00  0.00    -0.220 NA
HETATM    8  C   LIG     1      14.254  30.511  15.159  1.00  0.00     0.235 A 
HETATM    9  N   LIG     1      14.189  31.271  16.287  1.00  0.00    -0.252 NA
HETATM   10  C   LIG     1      14.987  32.361  16.446  1.00  0.00     0.153 A 
ENDROOT
TORSDOF 0
ENDMDL
MODEL 12
REMARK VINA RESULT:      -4.9      8.872     10.685
REMARK  0 active torsions:
REMARK  status: ('A' for Active; 'I' for Inactive)
ROOT
HETATM    1  C   LIG     1      15.664  32.249  15.568  1.00  0.00     0.121 A 
HETATM    2  N   LIG     1      15.807  33.038  16.665  1.00  0.00    -0.254 NA
HETATM    3  C   LIG     1      15.034  32.841  17.767  1.00  0.00     0.136 A 
HETATM    4  C   LIG     1      14.081  31.816  17.771  1.00  0.00     0.138 A 
HETATM    5  N   LIG     1      13.938  31.028  16.671  1.00  0.00    -0.238 NA
HETATM    6  C   LIG     1      14.708  31.220  15.570  1.00  0.00     0.180 A 
HETATM    7  N   LIG     1      14.562  30.430  14.475  1.00  0.00    -0.220 NA
HETATM    8  C   LIG     1      15.334  30.625  13.373  1.00  0.00     0.235 A 
HETATM    9  N   LIG     1      16.266  31.617  13.354  1.00  0.00    -0.252 NA
HETATM   10  C   LIG     1      16.445  32.432  14.428  1.00  0.00     0.153 A 
ENDROOT
TORSDOF 0
ENDMDL
MODEL 13
REMARK VINA RESULT:      -4.9      8.474     10.456
REMARK  0 active torsions:
REMARK  status: ('A' for Active; 'I' for Inactive)
ROOT
HETATM    1  C   LIG     1      14.954  31.552  15.496  1.00  0.00     0.121 A 
HETATM    2  N   LIG     1      15.178  31.259  14.188  1.00  0.00    -0.254 NA
HETATM    3  C   LIG     1      16.117  31.939  13.475  1.00  0.00     0.136 A 
HETATM    4  C   LIG     1      16.859  32.950  14.095  1.00  0.00     0.138 A 
HETATM    5  N   LIG     1      16.634  33.242  15.405  1.00  0.00    -0.238 NA
HETATM    6  C   LIG     1      15.698  32.567  16.119  1.00  0.00     0.180 A 
HETATM    7  N   LIG     1      15.478  32.862  17.426  1.00  0.00    -0.220 NA
HETATM    8  C   LIG     1      14.540  32.184  18.140  1.00  0.00     0.235 A 
HETATM    9  N   LIG     1      13.810  31.198  17.552  1.00  0.00    -0.252 NA
HETATM   10  C   LIG     1      13.997  30.870  16.246  1.00  0.00     0.153 A 
ENDROOT
TORSDOF 0
ENDMDL
MODEL 14
REMARK VINA RESULT:      -4.9      9.335     11.212
REMARK  0 active torsions:
REMARK  status: ('A' for Active; 'I' for Inactive)
ROOT
HETATM    1  C   LIG     1      15.398  32.113  15.393  1.00  0.00     0.121 A 
HETATM    2  N   LIG     1      14.398  31.270  15.760  1.00  0.00    -0.254 NA
HETATM    3  C   LIG     1      14.112  30.167  15.017  1.00  0.00     0.136 A 
HETATM    4  C   LIG     1      14.856  29.897  13.864  1.00  0.00     0.138 A 
HETATM    5  N   LIG     1      15.858  30.742  13.497  1.00  0.00    -0.238 NA
HETATM    6  C   LIG     1      16.146  31.843  14.236  1.00  0.00     0.180 A 
HETATM    7  N   LIG     1      17.148  32.683  13.866  1.00  0.00    -0.220 NA
HETATM    8  C   LIG     1      17.434  33.787  14.607  1.00  0.00     0.235 A 
HETATM    9  N   LIG     1      16.720  34.063  15.732  1.00  0.00    -0.252 NA
HETATM   10  C   LIG     1      15.709  33.249  16.138  1.00  0.00     0.153 A 
ENDROOT
TORSDOF 0
ENDMDL
MODEL 15
REMARK VINA RESULT:      -4.9      9.958     11.111
REMARK  0 active torsions:
REMARK  status: ('A' for Active; 'I' for Inactive)
ROOT
HETATM    1  C   LIG     1      15.959  31.856  14.178  1.00  0.00     0.121 A 
HETATM    2  N   LIG     1      16.885  32.274  13.275  1.00  0.00    -0.254 NA
HETATM    3  C   LIG     1      17.649  33.372  13.522  1.00  0.00     0.136 A 
HETATM    4  C   LIG     1      17.480  34.079  14.718  1.00  0.00     0.138 A 
HETATM    5  N   LIG     1      16.552  33.660  15.621  1.00  0.00    -0.238 NA
HETATM    6  C   LIG     1      15.788  32.564  15.378  1.00  0.00     0.180 A 
HETATM    7  N   LIG     1      14.864  32.150  16.283  1.00  0.00    -0.220 NA
HETATM    8  C   LIG     1      14.099  31.053  16.038  1.00  0.00     0.235 A 
HETATM    9  N   LIG     1      14.252  30.355  14.880  1.00  0.00    -0.252 NA
HETATM   10  C   LIG     1      15.165  30.734  13.947  1.00  0.00     0.153 A 
ENDROOT
TORSDOF 0
ENDMDL
MODEL 16
REMARK VINA RESULT:      -4.9      9.077     11.008
REMARK  0 active torsions:
REMARK  status: ('A' for Active; 'I' for Inactive)
ROOT
HETATM    1  C   LIG     1      15.744  31.897  14.859  1.00  0.00     0.121 A 
HETATM    2  N   LIG     1      16.063  31.046  13.849  1.00  0.00    -0.254 NA
HETATM    3  C   LIG     1      15.322  29.928  13.622  1.00  0.00     0.136 A 
HETATM    4  C   LIG     1      14.220  29.650  14.438  1.00  0.00     0.138 A 
HETATM    5  N   LIG     1      13.901  30.502  15.450  1.00  0.00    -0.238 NA
HETATM    6  C   LIG     1      14.637  31.620  15.679  1.00  0.00     0.180 A 
HETATM    7  N   LIG     1      14.315  32.467  16.690  1.00  0.00    -0.220 NA
HETATM    8  C   LIG     1      15.054  33.586  16.918  1.00  0.00     0.235 A 
HETATM    9  N   LIG     1      16.128  33.870  16.133  1.00  0.00    -0.252 NA
HETATM   10  C   LIG     1      16.488  33.048  15.110  1.00  0.00     0.153 A 
ENDROOT
TORSDOF 0
ENDMDL
MODEL 17
REMARK VINA RESULT:      -4.8      3.233      4.137
REMARK  0 active torsions:
REMARK  status: ('A' for Active; 'I' for Inactive)
ROOT
HETATM    1  C   LIG     1      18.016  37.101  20.468  1.00  0.00     0.121 A 
HETATM    2  N   LIG     1      17.505  35.904  20.076  1.00  0.00    -0.254 NA
HETATM    3  C   LIG     1      16.489  35.322  20.769  1.00  0.00     0.136 A 
HETATM    4  C   LIG     1      15.964  35.963  21.897  1.00  0.00     0.138 A 
HETATM    5  N   LIG     1      16.476  37.162  22.288  1.00  0.00    -0.238 NA
HETATM    6  C   LIG     1      17.490  37.746  21.599  1.00  0.00     0.180 A 
HETATM    7  N   LIG     1      17.997  38.942  21.993  1.00  0.00    -0.220 NA
HETATM    8  C   LIG     1      19.013  39.525  21.302  1.00  0.00     0.235 A 
HETATM    9  N   LIG     1      19.534  38.914  20.203  1.00  0.00    -0.252 NA
HETATM   10  C   LIG     1      19.056  37.716  19.773  1.00  0.00     0.153 A 
ENDROOT
TORSDOF 0
ENDMDL
MODEL 18
REMARK VINA RESULT:      -4.8      1.220      1.936
REMARK  0 active torsions:
REMARK  status: ('A' for Active; 'I' for Inactive)
ROOT
HETATM    1  C   LIG     1      17.195  36.006  23.872  1.00  0.00     0.121 A 
HETATM    2  N   LIG     1      17.459  35.848  25.196  1.00  0.00    -0.254 NA
HETATM    3  C   LIG     1      17.576  36.929  26.014  1.00  0.00     0.136 A 
HETATM    4  C   LIG     1      17.424  38.216  25.487  1.00  0.00     0.138 A 
HETATM    5  N   LIG     1      17.159  38.373  24.162  1.00  0.00    -0.238 NA
HETATM    6  C   LIG     1      17.041  37.297  23.342  1.00  0.00     0.180 A 
HETATM    7  N   LIG     1      16.777  37.458  22.020  1.00  0.00    -0.220 NA
HETATM    8  C   LIG     1      16.659  36.379  21.201  1.00  0.00     0.235 A 
HETATM    9  N   LIG     1      16.805  35.121  21.698  1.00  0.00    -0.252 NA
HETATM   10  C   LIG     1      17.070  34.913  23.016  1.00  0.00     0.153 A 
ENDROOT
TORSDOF 0
ENDMDL
MODEL 19
REMARK VINA RESULT:      -4.5      2.260      3.587
REMARK  0 active torsions:
REMARK  status: ('A' for Active; 'I' for Inactive)
ROOT
HETATM    1  C   LIG     1      17.387  37.006  21.412  1.00  0.00     0.121 A 
HETATM    2  N   LIG     1      18.020  38.201  21.540  1.00  0.00    -0.254 NA
HETATM    3  C   LIG     1      18.127  38.804  22.755  1.00  0.00     0.136 A 
HETATM    4  C   LIG     1      17.579  38.187  23.885  1.00  0.00     0.138 A 
HETATM    5  N   LIG     1      16.944  36.990  23.756  1.00  0.00    -0.238 NA
HETATM    6  C   LIG     1      16.836  36.385  22.546  1.00  0.00     0.180 A 
HETATM    7  N   LIG     1      16.203  35.190  22.422  1.00  0.00    -0.220 NA
HETATM    8  C   LIG     1      16.095  34.586  21.209  1.00  0.00     0.235 A 
HETATM    9  N   LIG     1      16.623  35.173  20.101  1.00  0.00    -0.252 NA
HETATM   10  C   LIG     1      17.266  36.369  20.178  1.00  0.00     0.153 A 
ENDROOT
TORSDOF 0
ENDMDL
