REMARK  0 active torsions:
REMARK  status: ('A' for Active; 'I' for Inactive)
ROOT
HETATM    1  N   LIG     1       3.075   1.761   0.356  1.00  0.00    -0.191 NA
HETATM    2  C   LIG     1       2.038   1.259   0.246  1.00  0.00     0.101 C 
HETATM    3  C   LIG     1       0.744   0.633   0.109  1.00  0.00     0.065 A 
HETATM    4  C   LIG     1      -0.406   1.435   0.138  1.00  0.00     0.024 A 
HETATM    5  C   LIG     1      -1.671   0.857   0.008  1.00  0.00     0.002 A 
HETATM    6  C   LIG     1      -1.797  -0.525  -0.152  1.00  0.00     0.002 A 
HETATM    7  C   LIG     1      -0.657  -1.333  -0.183  1.00  0.00     0.024 A 
HETATM    8  C   LIG     1       0.618  -0.763  -0.053  1.00  0.00     0.065 A 
HETATM    9  C   LIG     1       1.777  -1.624  -0.088  1.00  0.00     0.101 C 
HETATM   10  N   LIG     1       2.705  -2.313  -0.116  1.00  0.00    -0.191 NA
ENDROOT
TORSDOF 0
