MODEL 1
REMARK VINA RESULT:      -7.1      0.000      0.000
REMARK  0 active torsions:
REMARK  status: ('A' for Active; 'I' for Inactive)
ROOT
HETATM    1  N   LIG     1      16.448  38.965  22.776  1.00  0.00    -0.191 NA
HETATM    2  C   LIG     1      16.800  38.150  23.519  1.00  0.00     0.101 C 
HETATM    3  C   LIG     1      17.239  37.135  24.446  1.00  0.00     0.065 A 
HETATM    4  C   LIG     1      17.746  37.526  25.694  1.00  0.00     0.024 A 
HETATM    5  C   LIG     1      18.179  36.566  26.611  1.00  0.00     0.002 A 
HETATM    6  C   LIG     1      18.108  35.208  26.290  1.00  0.00     0.002 A 
HETATM    7  C   LIG     1      17.603  34.807  25.050  1.00  0.00     0.024 A 
HETATM    8  C   LIG     1      17.166  35.763  24.121  1.00  0.00     0.065 A 
HETATM    9  C   LIG     1      16.650  35.319  22.848  1.00  0.00     0.101 C 
HETATM   10  N   LIG     1      16.237  34.963  21.828  1.00  0.00    -0.191 NA
ENDROOT
TORSDOF 0
ENDMDL
MODEL 2
REMARK VINA RESULT:      -7.1      0.100      2.729
REMARK  0 active torsions:
REMARK  status: ('A' for Active; 'I' for Inactive)
ROOT
HETATM    1  N   LIG     1      16.367  35.017  21.743  1.00  0.00    -0.191 NA
HETATM    2  C   LIG     1      16.739  35.340  22.791  1.00  0.00     0.101 C 
HETATM    3  C   LIG     1      17.202  35.742  24.098  1.00  0.00     0.065 A 
HETATM    4  C   LIG     1      17.601  34.756  25.012  1.00  0.00     0.024 A 
HETATM    5  C   LIG     1      18.054  35.116  26.283  1.00  0.00     0.002 A 
HETATM    6  C   LIG     1      18.111  36.462  26.652  1.00  0.00     0.002 A 
HETATM    7  C   LIG     1      17.717  37.453  25.748  1.00  0.00     0.024 A 
HETATM    8  C   LIG     1      17.260  37.102  24.469  1.00  0.00     0.065 A 
HETATM    9  C   LIG     1      16.859  38.149  23.558  1.00  0.00     0.101 C 
HETATM   10  N   LIG     1      16.537  38.986  22.828  1.00  0.00    -0.191 NA
ENDROOT
TORSDOF 0
ENDMDL
MODEL 3
REMARK VINA RESULT:      -7.0      2.922      4.315
REMARK  0 active torsions:
REMARK  status: ('A' for Active; 'I' for Inactive)
ROOT
HETATM    1  N   LIG     1      16.017  38.098  23.651  1.00  0.00    -0.191 NA
HETATM    2  C   LIG     1      16.758  38.072  22.763  1.00  0.00     0.101 C 
HETATM    3  C   LIG     1      17.683  38.040  21.655  1.00  0.00     0.065 A 
HETATM    4  C   LIG     1      18.465  39.173  21.389  1.00  0.00     0.024 A 
HETATM    5  C   LIG     1      19.368  39.172  20.324  1.00  0.00     0.002 A 
HETATM    6  C   LIG     1      19.497  38.039  19.516  1.00  0.00     0.002 A 
HETATM    7  C   LIG     1      18.722  36.905  19.772  1.00  0.00     0.024 A 
HETATM    8  C   LIG     1      17.812  36.896  20.840  1.00  0.00     0.065 A 
HETATM    9  C   LIG     1      17.025  35.709  21.079  1.00  0.00     0.101 C 
HETATM   10  N   LIG     1      16.395  34.759  21.271  1.00  0.00    -0.191 NA
ENDROOT
TORSDOF 0
ENDMDL
MODEL 4
REMARK VINA RESULT:      -7.0      2.949      5.040
REMARK  0 active torsions:
REMARK  status: ('A' for Active; 'I' for Inactive)
ROOT
HETATM    1  N   LIG     1      16.414  34.762  21.313  1.00  0.00    -0.191 NA
HETATM    2  C   LIG     1      17.039  35.715  21.112  1.00  0.00     0.101 C 
HETATM    3  C   LIG     1      17.820  36.903  20.861  1.00  0.00     0.065 A 
HETATM    4  C   LIG     1      18.750  36.897  19.811  1.00  0.00     0.024 A 
HETATM    5  C   LIG     1      19.519  38.033  19.545  1.00  0.00     0.002 A 
HETATM    6  C   LIG     1      19.364  39.182  20.324  1.00  0.00     0.002 A 
HETATM    7  C   LIG     1      18.439  39.199  21.372  1.00  0.00     0.024 A 
HETATM    8  C   LIG     1      17.663  38.064  21.648  1.00  0.00     0.065 A 
HETATM    9  C   LIG     1      16.716  38.111  22.738  1.00  0.00     0.101 C 
HETATM   10  N   LIG     1      15.958  38.149  23.610  1.00  0.00    -0.191 NA
ENDROOT
TORSDOF 0
ENDMDL
MODEL 5
REMARK VINA RESULT:      -6.4      2.015      4.242
REMARK  0 active torsions:
REMARK  status: ('A' for Active; 'I' for Inactive)
ROOT
HETATM    1  N   LIG     1      17.192  34.613  26.135  1.00  0.00    -0.191 NA
HETATM    2  C   LIG     1      17.172  35.106  25.088  1.00  0.00     0.101 C 
HETATM    3  C   LIG     1      17.147  35.720  23.782  1.00  0.00     0.065 A 
HETATM    4  C   LIG     1      17.127  34.900  22.645  1.00  0.00     0.024 A 
HETATM    5  C   LIG     1      17.103  35.467  21.368  1.00  0.00     0.002 A 
HETATM    6  C   LIG     1      17.099  36.856  21.218  1.00  0.00     0.002 A 
HETATM    7  C   LIG     1      17.118  37.682  22.345  1.00  0.00     0.024 A 
HETATM    8  C   LIG     1      17.143  37.123  23.632  1.00  0.00     0.065 A 
HETATM    9  C   LIG     1      17.163  38.003  24.777  1.00  0.00     0.101 C 
HETATM   10  N   LIG     1      17.179  38.707  25.694  1.00  0.00    -0.191 NA
ENDROOT
TORSDOF 0
ENDMDL
MODEL 6
REMARK VINA RESULT:      -6.4      2.025      3.307
REMARK  0 active torsions:
REMARK  status: ('A' for Active; 'I' for Inactive)
ROOT
HETATM    1  N   LIG     1      17.181  38.663  25.758  1.00  0.00    -0.191 NA
HETATM    2  C   LIG     1      17.166  37.968  24.833  1.00  0.00     0.101 C 
HETATM    3  C   LIG     1      17.148  37.102  23.678  1.00  0.00     0.065 A 
HETATM    4  C   LIG     1      17.131  37.676  22.398  1.00  0.00     0.024 A 
HETATM    5  C   LIG     1      17.112  36.862  21.262  1.00  0.00     0.002 A 
HETATM    6  C   LIG     1      17.110  35.472  21.396  1.00  0.00     0.002 A 
HETATM    7  C   LIG     1      17.128  34.891  22.667  1.00  0.00     0.024 A 
HETATM    8  C   LIG     1      17.146  35.698  23.814  1.00  0.00     0.065 A 
HETATM    9  C   LIG     1      17.163  35.068  25.113  1.00  0.00     0.101 C 
HETATM   10  N   LIG     1      17.177  34.564  26.154  1.00  0.00    -0.191 NA
ENDROOT
TORSDOF 0
ENDMDL
MODEL 7
REMARK VINA RESULT:      -6.4      8.158     10.151
REMARK  0 active torsions:
REMARK  status: ('A' for Active; 'I' for Inactive)
ROOT
HETATM    1  N   LIG     1      15.517  34.517  17.683  1.00  0.00    -0.191 NA
HETATM    2  C   LIG     1      15.133  33.579  17.126  1.00  0.00     0.101 C 
HETATM    3  C   LIG     1      14.653  32.407  16.431  1.00  0.00     0.065 A 
HETATM    4  C   LIG     1      13.417  31.857  16.800  1.00  0.00     0.024 A 
HETATM    5  C   LIG     1      12.928  30.724  16.145  1.00  0.00     0.002 A 
HETATM    6  C   LIG     1      13.668  30.133  15.119  1.00  0.00     0.002 A 
HETATM    7  C   LIG     1      14.901  30.674  14.744  1.00  0.00     0.024 A 
HETATM    8  C   LIG     1      15.402  31.811  15.394  1.00  0.00     0.065 A 
HETATM    9  C   LIG     1      16.679  32.347  14.985  1.00  0.00     0.101 C 
HETATM   10  N   LIG     1      17.701  32.776  14.657  1.00  0.00    -0.191 NA
ENDROOT
TORSDOF 0
ENDMDL
MODEL 8
REMARK VINA RESULT:      -5.9      2.522      3.923
REMARK  0 active torsions:
REMARK  status: ('A' for Active; 'I' for Inactive)
ROOT
HETATM    1  N   LIG     1      17.170  38.566  25.100  1.00  0.00    -0.191 NA
HETATM    2  C   LIG     1      17.121  37.876  24.172  1.00  0.00     0.101 C 
HETATM    3  C   LIG     1      17.061  37.015  23.015  1.00  0.00     0.065 A 
HETATM    4  C   LIG     1      16.475  35.747  23.140  1.00  0.00     0.024 A 
HETATM    5  C   LIG     1      16.403  34.893  22.037  1.00  0.00     0.002 A 
HETATM    6  C   LIG     1      16.914  35.298  20.802  1.00  0.00     0.002 A 
HETATM    7  C   LIG     1      17.498  36.560  20.666  1.00  0.00     0.024 A 
HETATM    8  C   LIG     1      17.577  37.426  21.767  1.00  0.00     0.065 A 
HETATM    9  C   LIG     1      18.187  38.723  21.596  1.00  0.00     0.101 C 
HETATM   10  N   LIG     1      18.676  39.762  21.459  1.00  0.00    -0.191 NA
ENDROOT
TORSDOF 0
ENDMDL
MODEL 9
REMARK VINA RESULT:      -5.9      3.390      4.321
REMARK  0 active torsions:
REMARK  status: ('A' for Active; 'I' for Inactive)
ROOT
HETATM    1  N   LIG     1      16.136  34.193  20.429  1.00  0.00    -0.191 NA
HETATM    2  C   LIG     1      16.326  35.230  20.907  1.00  0.00     0.101 C 
HETATM    3  C   LIG     1      16.563  36.523  21.504  1.00  0.00     0.065 A 
HETATM    4  C   LIG     1      15.674  36.995  22.480  1.00  0.00     0.024 A 
HETATM    5  C   LIG     1      15.878  38.243  23.075  1.00  0.00     0.002 A 
HETATM    6  C   LIG     1      16.970  39.028  22.698  1.00  0.00     0.002 A 
HETATM    7  C   LIG     1      17.862  38.567  21.726  1.00  0.00     0.024 A 
HETATM    8  C   LIG     1      17.667  37.316  21.123  1.00  0.00     0.065 A 
HETATM    9  C   LIG     1      18.605  36.867  20.121  1.00  0.00     0.101 C 
HETATM   10  N   LIG     1      19.356  36.507  19.319  1.00  0.00    -0.191 NA
ENDROOT
TORSDOF 0
ENDMDL
MODEL 10
REMARK VINA RESULT:      -5.9      2.520      3.850
REMARK  0 active torsions:
REMARK  status: ('A' for Active; 'I' for Inactive)
ROOT
HETATM    1  N   LIG     1      18.684  39.683  21.361  1.00  0.00    -0.191 NA
HETATM    2  C   LIG     1      18.184  38.651  21.516  1.00  0.00     0.101 C 
HETATM    3  C   LIG     1      17.560  37.363  21.709  1.00  0.00     0.065 A 
HETATM    4  C   LIG     1      17.466  36.483  20.621  1.00  0.00     0.024 A 
HETATM    5  C   LIG     1      16.867  35.231  20.778  1.00  0.00     0.002 A 
HETATM    6  C   LIG     1      16.358  34.848  22.022  1.00  0.00     0.002 A 
HETATM    7  C   LIG     1      16.447  35.718  23.112  1.00  0.00     0.024 A 
HETATM    8  C   LIG     1      17.046  36.978  22.966  1.00  0.00     0.065 A 
HETATM    9  C   LIG     1      17.123  37.855  24.111  1.00  0.00     0.101 C 
HETATM   10  N   LIG     1      17.184  38.557  25.027  1.00  0.00    -0.191 NA
ENDROOT
TORSDOF 0
ENDMDL
MODEL 11
REMARK VINA RESULT:      -5.8      2.117      2.725
REMARK  0 active torsions:
REMARK  status: ('A' for Active; 'I' for Inactive)
ROOT
HETATM    1  N   LIG     1      18.713  39.273  19.879  1.00  0.00    -0.191 NA
HETATM    2  C   LIG     1      18.354  38.755  20.850  1.00  0.00     0.101 C 
HETATM    3  C   LIG     1      17.907  38.110  22.062  1.00  0.00     0.065 A 
HETATM    4  C   LIG     1      18.107  38.756  23.290  1.00  0.00     0.024 A 
HETATM    5  C   LIG     1      17.685  38.155  24.479  1.00  0.00     0.002 A 
HETATM    6  C   LIG     1      17.061  36.906  24.449  1.00  0.00     0.002 A 
HETATM    7  C   LIG     1      16.856  36.254  23.230  1.00  0.00     0.024 A 
HETATM    8  C   LIG     1      17.276  36.848  22.031  1.00  0.00     0.065 A 
HETATM    9  C   LIG     1      17.052  36.149  20.787  1.00  0.00     0.101 C 
HETATM   10  N   LIG     1      16.873  35.590  19.791  1.00  0.00    -0.191 NA
ENDROOT
TORSDOF 0
ENDMDL
MODEL 12
REMARK VINA RESULT:      -5.8      1.849      3.503
REMARK  0 active torsions:
REMARK  status: ('A' for Active; 'I' for Inactive)
ROOT
HETATM    1  N   LIG     1      17.181  35.848  19.854  1.00  0.00    -0.191 NA
HETATM    2  C   LIG     1      17.267  36.220  20.947  1.00  0.00     0.101 C 
HETATM    3  C   LIG     1      17.374  36.684  22.310  1.00  0.00     0.065 A 
HETATM    4  C   LIG     1      16.979  35.832  23.352  1.00  0.00     0.024 A 
HETATM    5  C   LIG     1      17.071  36.254  24.680  1.00  0.00     0.002 A 
HETATM    6  C   LIG     1      17.559  37.529  24.978  1.00  0.00     0.002 A 
HETATM    7  C   LIG     1      17.956  38.385  23.948  1.00  0.00     0.024 A 
HETATM    8  C   LIG     1      17.867  37.972  22.610  1.00  0.00     0.065 A 
HETATM    9  C   LIG     1      18.285  38.879  21.567  1.00  0.00     0.101 C 
HETATM   10  N   LIG     1      18.619  39.606  20.732  1.00  0.00    -0.191 NA
ENDROOT
TORSDOF 0
ENDMDL
MODEL 13
REMARK VINA RESULT:      -5.7      2.573      3.363
REMARK  0 active torsions:
REMARK  status: ('A' for Active; 'I' for Inactive)
ROOT
HETATM    1  N   LIG     1      18.832  40.000  20.723  1.00  0.00    -0.191 NA
HETATM    2  C   LIG     1      18.401  39.032  21.187  1.00  0.00     0.101 C 
HETATM    3  C   LIG     1      17.862  37.824  21.767  1.00  0.00     0.065 A 
HETATM    4  C   LIG     1      17.521  37.816  23.127  1.00  0.00     0.024 A 
HETATM    5  C   LIG     1      16.998  36.662  23.715  1.00  0.00     0.002 A 
HETATM    6  C   LIG     1      16.812  35.509  22.950  1.00  0.00     0.002 A 
HETATM    7  C   LIG     1      17.148  35.506  21.593  1.00  0.00     0.024 A 
HETATM    8  C   LIG     1      17.674  36.660  20.993  1.00  0.00     0.065 A 
HETATM    9  C   LIG     1      18.012  36.626  19.589  1.00  0.00     0.101 C 
HETATM   10  N   LIG     1      18.283  36.600  18.466  1.00  0.00    -0.191 NA
ENDROOT
TORSDOF 0
ENDMDL
MODEL 14
REMARK VINA RESULT:      -5.5      8.603     10.719
REMARK  0 active torsions:
REMARK  status: ('A' for Active; 'I' for Inactive)
ROOT
HETATM    1  N   LIG     1      14.833  32.851  18.268  1.00  0.00    -0.191 NA
HETATM    2  C   LIG     1      14.946  32.393  17.211  1.00  0.00     0.101 C 
HETATM    3  C   LIG     1      15.087  31.821  15.893  1.00  0.00     0.065 A 
HETATM    4  C   LIG     1      14.400  30.637  15.588  1.00  0.00     0.024 A 
HETATM    5  C   LIG     1      14.517  30.060  14.321  1.00  0.00     0.002 A 
HETATM    6  C   LIG     1      15.320  30.662  13.350  1.00  0.00     0.002 A 
HETATM    7  C   LIG     1      16.008  31.843  13.643  1.00  0.00     0.024 A 
HETATM    8  C   LIG     1      15.898  32.430  14.912  1.00  0.00     0.065 A 
HETATM    9  C   LIG     1      16.621  33.649  15.185  1.00  0.00     0.101 C 
HETATM   10  N   LIG     1      17.201  34.626  15.404  1.00  0.00    -0.191 NA
ENDROOT
TORSDOF 0
ENDMDL
MODEL 15
REMARK VINA RESULT:      -5.4      9.596     11.347
REMARK  0 active torsions:
REMARK  status: ('A' for Active; 'I' for Inactive)
ROOT
HETATM    1  N   LIG     1      13.230  29.058  14.280  1.00  0.00    -0.191 NA
HETATM    2  C   LIG     1      13.991  29.925  14.376  1.00  0.00     0.101 C 
HETATM    3  C   LIG     1      14.940  31.006  14.495  1.00  0.00     0.065 A 
HETATM    4  C   LIG     1      15.739  31.335  13.390  1.00  0.00     0.024 A 
HETATM    5  C   LIG     1      16.666  32.376  13.477  1.00  0.00     0.002 A 
HETATM    6  C   LIG     1      16.803  33.096  14.666  1.00  0.00     0.002 A 
HETATM    7  C   LIG     1      16.011  32.777  15.772  1.00  0.00     0.024 A 
HETATM    8  C   LIG     1      15.077  31.733  15.697  1.00  0.00     0.065 A 
HETATM    9  C   LIG     1      14.274  31.426  16.857  1.00  0.00     0.101 C 
HETATM   10  N   LIG     1      13.631  31.180  17.786  1.00  0.00    -0.191 NA
ENDROOT
TORSDOF 0
ENDMDL
MODEL 16
REMARK VINA RESULT:      -5.2      1.880      3.240
REMARK  0 active torsions:
REMARK  status: ('A' for Active; 'I' for Inactive)
ROOT
HETATM    1  N   LIG     1      17.157  34.791  25.765  1.00  0.00    -0.191 NA
HETATM    2  C   LIG     1      17.285  35.655  25.005  1.00  0.00     0.101 C 
HETATM    3  C   LIG     1      17.445  36.733  24.057  1.00  0.00     0.065 A 
HETATM    4  C   LIG     1      18.124  37.893  24.456  1.00  0.00     0.024 A 
HETATM    5  C   LIG     1      18.294  38.952  23.561  1.00  0.00     0.002 A 
HETATM    6  C   LIG     1      17.788  38.860  22.262  1.00  0.00     0.002 A 
HETATM    7  C   LIG     1      17.111  37.707  21.854  1.00  0.00     0.024 A 
HETATM    8  C   LIG     1      16.935  36.638  22.746  1.00  0.00     0.065 A 
HETATM    9  C   LIG     1      16.230  35.460  22.296  1.00  0.00     0.101 C 
HETATM   10  N   LIG     1      15.666  34.517  21.936  1.00  0.00    -0.191 NA
ENDROOT
TORSDOF 0
ENDMDL
MODEL 17
REMARK VINA RESULT:      -5.2      1.873      3.547
REMARK  0 active torsions:
REMARK  status: ('A' for Active; 'I' for Inactive)
ROOT
HETATM    1  N   LIG     1      16.263  34.456  21.590  1.00  0.00    -0.191 NA
HETATM    2  C   LIG     1      16.587  35.450  22.085  1.00  0.00     0.101 C 
HETATM    3  C   LIG     1      16.992  36.691  22.702  1.00  0.00     0.065 A 
HETATM    4  C   LIG     1      17.049  37.853  21.919  1.00  0.00     0.024 A 
HETATM    5  C   LIG     1      17.438  39.068  22.489  1.00  0.00     0.002 A 
HETATM    6  C   LIG     1      17.772  39.131  23.844  1.00  0.00     0.002 A 
HETATM    7  C   LIG     1      17.718  37.979  24.633  1.00  0.00     0.024 A 
HETATM    8  C   LIG     1      17.330  36.754  24.071  1.00  0.00     0.065 A 
HETATM    9  C   LIG     1      17.284  35.581  24.911  1.00  0.00     0.101 C 
HETATM   10  N   LIG     1      17.248  34.641  25.584  1.00  0.00    -0.191 NA
ENDROOT
TORSDOF 0
ENDMDL
MODEL 18
REMARK VINA RESULT:      -4.2     11.408     12.780
REMARK  0 active torsions:
REMARK  status: ('A' for Active; 'I' for Inactive)
ROOT
HETATM    1  N   LIG     1      12.644  31.341  16.177  1.00  0.00    -0.191 NA
HETATM    2  C   LIG     1      13.153  30.543  15.511  1.00  0.00     0.101 C 
HETATM    3  C   LIG     1      13.787  29.547  14.681  1.00  0.00     0.065 A 
HETATM    4  C   LIG     1      13.081  28.379  14.359  1.00  0.00     0.024 A 
HETATM    5  C   LIG     1      13.670  27.398  13.557  1.00  0.00     0.002 A 
HETATM    6  C   LIG     1      14.967  27.576  13.071  1.00  0.00     0.002 A 
HETATM    7  C   LIG     1      15.679  28.737  13.385  1.00  0.00     0.024 A 
HETATM    8  C   LIG     1      15.098  29.728  14.190  1.00  0.00     0.065 A 
HETATM    9  C   LIG     1      15.859  30.916  14.498  1.00  0.00     0.101 C 
HETATM   10  N   LIG     1      16.468  31.867  14.744  1.00  0.00    -0.191 NA
ENDROOT
TORSDOF 0
ENDMDL
