REMARK  0 active torsions:
REMARK  status: ('A' for Active; 'I' for Inactive)
ROOT
HETATM    1  C   LIG     1      -0.211   0.505   0.324  1.00  0.00     0.121 A 
HETATM    2  N   LIG     1       0.886   1.186   0.748  1.00  0.00    -0.254 NA
HETATM    3  C   LIG     1       2.137   0.740   0.453  1.00  0.00     0.136 A 
HETATM    4  C   LIG     1       2.296  -0.432  -0.295  1.00  0.00     0.138 A 
HETATM    5  N   LIG     1       1.197  -1.113  -0.719  1.00  0.00    -0.238 NA
HETATM    6  C   LIG     1      -0.053  -0.671  -0.427  1.00  0.00     0.180 A 
HETATM    7  N   LIG     1      -1.147  -1.354  -0.853  1.00  0.00    -0.220 NA
HETATM    8  C   LIG     1      -2.398  -0.910  -0.559  1.00  0.00     0.235 A 
HETATM    9  N   LIG     1      -2.569   0.228   0.167  1.00  0.00    -0.252 NA
HETATM   10  C   LIG     1      -1.502   0.943   0.614  1.00  0.00     0.153 A 
ENDROOT
TORSDOF 0
