MODEL 1
REMARK VINA RESULT:      -7.4      0.000      0.000
REMARK  0 active torsions:
REMARK  status: ('A' for Active; 'I' for Inactive)
ROOT
HETATM    1  C   LIG     1      17.184  35.964  24.184  1.00  0.00    -0.007 A 
HETATM    2  C   LIG     1      16.675  35.862  22.882  1.00  0.00     0.015 A 
HETATM    3  C   LIG     1      16.327  37.019  22.182  1.00  0.00     0.020 A 
HETATM    4  C   LIG     1      16.492  38.267  22.788  1.00  0.00     0.117 A 
HETATM    5  N   LIG     1      16.987  38.353  24.051  1.00  0.00    -0.260 NA
HETATM    6  C   LIG     1      17.335  37.245  24.760  1.00  0.00     0.066 A 
HETATM    7  C   LIG     1      17.842  37.371  26.059  1.00  0.00     0.032 A 
HETATM    8  C   LIG     1      18.198  36.228  26.783  1.00  0.00     0.002 A 
HETATM    9  C   LIG     1      18.049  34.959  26.214  1.00  0.00     0.001 A 
HETATM   10  C   LIG     1      17.544  34.823  24.917  1.00  0.00     0.014 A 
ENDROOT
TORSDOF 0
ENDMDL
MODEL 2
REMARK VINA RESULT:      -7.3      0.979      2.079
REMARK  0 active torsions:
REMARK  status: ('A' for Active; 'I' for Inactive)
ROOT
HETATM    1  C   LIG     1      17.601  37.279  24.727  1.00  0.00    -0.007 A 
HETATM    2  C   LIG     1      17.455  38.449  23.970  1.00  0.00     0.015 A 
HETATM    3  C   LIG     1      16.949  38.374  22.671  1.00  0.00     0.020 A 
HETATM    4  C   LIG     1      16.593  37.131  22.140  1.00  0.00     0.117 A 
HETATM    5  N   LIG     1      16.739  36.003  22.884  1.00  0.00    -0.260 NA
HETATM    6  C   LIG     1      17.228  36.042  24.153  1.00  0.00     0.066 A 
HETATM    7  C   LIG     1      17.366  34.860  24.892  1.00  0.00     0.032 A 
HETATM    8  C   LIG     1      17.871  34.907  26.195  1.00  0.00     0.002 A 
HETATM    9  C   LIG     1      18.239  36.130  26.766  1.00  0.00     0.001 A 
HETATM   10  C   LIG     1      18.106  37.316  26.036  1.00  0.00     0.014 A 
ENDROOT
TORSDOF 0
ENDMDL
MODEL 3
REMARK VINA RESULT:      -7.0      0.840      3.413
REMARK  0 active torsions:
REMARK  status: ('A' for Active; 'I' for Inactive)
ROOT
HETATM    1  C   LIG     1      17.236  35.917  24.097  1.00  0.00    -0.007 A 
HETATM    2  C   LIG     1      17.473  34.824  24.942  1.00  0.00     0.015 A 
HETATM    3  C   LIG     1      17.929  35.042  26.243  1.00  0.00     0.020 A 
HETATM    4  C   LIG     1      18.145  36.348  26.689  1.00  0.00     0.117 A 
HETATM    5  N   LIG     1      17.912  37.401  25.860  1.00  0.00    -0.260 NA
HETATM    6  C   LIG     1      17.466  37.223  24.587  1.00  0.00     0.066 A 
HETATM    7  C   LIG     1      17.237  38.329  23.760  1.00  0.00     0.032 A 
HETATM    8  C   LIG     1      16.780  38.140  22.452  1.00  0.00     0.002 A 
HETATM    9  C   LIG     1      16.551  36.849  21.965  1.00  0.00     0.001 A 
HETATM   10  C   LIG     1      16.778  35.737  22.783  1.00  0.00     0.014 A 
ENDROOT
TORSDOF 0
ENDMDL
MODEL 4
REMARK VINA RESULT:      -6.9      1.272      3.988
REMARK  0 active torsions:
REMARK  status: ('A' for Active; 'I' for Inactive)
ROOT
HETATM    1  C   LIG     1      17.591  37.189  24.639  1.00  0.00    -0.007 A 
HETATM    2  C   LIG     1      18.053  37.267  25.960  1.00  0.00     0.015 A 
HETATM    3  C   LIG     1      18.162  36.104  26.726  1.00  0.00     0.020 A 
HETATM    4  C   LIG     1      17.809  34.874  26.164  1.00  0.00     0.117 A 
HETATM    5  N   LIG     1      17.362  34.811  24.882  1.00  0.00    -0.260 NA
HETATM    6  C   LIG     1      17.245  35.925  24.110  1.00  0.00     0.066 A 
HETATM    7  C   LIG     1      16.781  35.824  22.793  1.00  0.00     0.032 A 
HETATM    8  C   LIG     1      16.662  36.973  22.004  1.00  0.00     0.002 A 
HETATM    9  C   LIG     1      17.005  38.224  22.526  1.00  0.00     0.001 A 
HETATM   10  C   LIG     1      17.469  38.336  23.841  1.00  0.00     0.014 A 
ENDROOT
TORSDOF 0
ENDMDL
MODEL 5
REMARK VINA RESULT:      -6.8      3.122      5.010
REMARK  0 active torsions:
REMARK  status: ('A' for Active; 'I' for Inactive)
ROOT
HETATM    1  C   LIG     1      17.912  38.484  21.424  1.00  0.00    -0.007 A 
HETATM    2  C   LIG     1      16.994  38.819  22.429  1.00  0.00     0.015 A 
HETATM    3  C   LIG     1      16.044  37.882  22.838  1.00  0.00     0.020 A 
HETATM    4  C   LIG     1      16.019  36.618  22.242  1.00  0.00     0.117 A 
HETATM    5  N   LIG     1      16.915  36.305  21.268  1.00  0.00    -0.260 NA
HETATM    6  C   LIG     1      17.854  37.195  20.847  1.00  0.00     0.066 A 
HETATM    7  C   LIG     1      18.761  36.839  19.841  1.00  0.00     0.032 A 
HETATM    8  C   LIG     1      19.723  37.759  19.412  1.00  0.00     0.002 A 
HETATM    9  C   LIG     1      19.783  39.034  19.982  1.00  0.00     0.001 A 
HETATM   10  C   LIG     1      18.881  39.400  20.987  1.00  0.00     0.014 A 
ENDROOT
TORSDOF 0
ENDMDL
MODEL 6
REMARK VINA RESULT:      -6.8      2.955      4.604
REMARK  0 active torsions:
REMARK  status: ('A' for Active; 'I' for Inactive)
ROOT
HETATM    1  C   LIG     1      18.020  36.962  20.659  1.00  0.00    -0.007 A 
HETATM    2  C   LIG     1      17.161  35.892  20.948  1.00  0.00     0.015 A 
HETATM    3  C   LIG     1      16.199  36.029  21.951  1.00  0.00     0.020 A 
HETATM    4  C   LIG     1      16.103  37.232  22.655  1.00  0.00     0.117 A 
HETATM    5  N   LIG     1      16.941  38.262  22.366  1.00  0.00    -0.260 NA
HETATM    6  C   LIG     1      17.889  38.162  21.395  1.00  0.00     0.066 A 
HETATM    7  C   LIG     1      18.736  39.243  21.123  1.00  0.00     0.032 A 
HETATM    8  C   LIG     1      19.709  39.133  20.124  1.00  0.00     0.002 A 
HETATM    9  C   LIG     1      19.840  37.947  19.394  1.00  0.00     0.001 A 
HETATM   10  C   LIG     1      18.998  36.861  19.659  1.00  0.00     0.014 A 
ENDROOT
TORSDOF 0
ENDMDL
MODEL 7
REMARK VINA RESULT:      -6.7      3.117      4.170
REMARK  0 active torsions:
REMARK  status: ('A' for Active; 'I' for Inactive)
ROOT
HETATM    1  C   LIG     1      18.025  37.056  20.691  1.00  0.00    -0.007 A 
HETATM    2  C   LIG     1      18.983  36.886  19.683  1.00  0.00     0.015 A 
HETATM    3  C   LIG     1      19.860  37.929  19.378  1.00  0.00     0.020 A 
HETATM    4  C   LIG     1      19.771  39.132  20.083  1.00  0.00     0.117 A 
HETATM    5  N   LIG     1      18.838  39.285  21.059  1.00  0.00    -0.260 NA
HETATM    6  C   LIG     1      17.969  38.288  21.381  1.00  0.00     0.066 A 
HETATM    7  C   LIG     1      17.019  38.480  22.392  1.00  0.00     0.032 A 
HETATM    8  C   LIG     1      16.129  37.452  22.717  1.00  0.00     0.002 A 
HETATM    9  C   LIG     1      16.183  36.231  22.036  1.00  0.00     0.001 A 
HETATM   10  C   LIG     1      17.128  36.030  21.024  1.00  0.00     0.014 A 
ENDROOT
TORSDOF 0
ENDMDL
MODEL 8
REMARK VINA RESULT:      -6.6      3.303      4.628
REMARK  0 active torsions:
REMARK  status: ('A' for Active; 'I' for Inactive)
ROOT
HETATM    1  C   LIG     1      17.914  38.265  21.363  1.00  0.00    -0.007 A 
HETATM    2  C   LIG     1      18.836  39.243  20.966  1.00  0.00     0.015 A 
HETATM    3  C   LIG     1      19.760  38.955  19.959  1.00  0.00     0.020 A 
HETATM    4  C   LIG     1      19.753  37.694  19.357  1.00  0.00     0.117 A 
HETATM    5  N   LIG     1      18.853  36.753  19.751  1.00  0.00    -0.260 NA
HETATM    6  C   LIG     1      17.941  37.002  20.729  1.00  0.00     0.066 A 
HETATM    7  C   LIG     1      17.029  36.010  21.110  1.00  0.00     0.032 A 
HETATM    8  C   LIG     1      16.093  36.272  22.116  1.00  0.00     0.002 A 
HETATM    9  C   LIG     1      16.065  37.521  22.745  1.00  0.00     0.001 A 
HETATM   10  C   LIG     1      16.972  38.518  22.372  1.00  0.00     0.014 A 
ENDROOT
TORSDOF 0
ENDMDL
MODEL 9
REMARK VINA RESULT:      -6.0      1.550      3.742
REMARK  0 active torsions:
REMARK  status: ('A' for Active; 'I' for Inactive)
ROOT
HETATM    1  C   LIG     1      17.352  37.346  22.882  1.00  0.00    -0.007 A 
HETATM    2  C   LIG     1      17.562  38.531  23.601  1.00  0.00     0.015 A 
HETATM    3  C   LIG     1      17.592  38.498  24.997  1.00  0.00     0.020 A 
HETATM    4  C   LIG     1      17.414  37.282  25.661  1.00  0.00     0.117 A 
HETATM    5  N   LIG     1      17.211  36.139  24.953  1.00  0.00    -0.260 NA
HETATM    6  C   LIG     1      17.176  36.137  23.593  1.00  0.00     0.066 A 
HETATM    7  C   LIG     1      16.965  34.942  22.895  1.00  0.00     0.032 A 
HETATM    8  C   LIG     1      16.930  34.947  21.497  1.00  0.00     0.002 A 
HETATM    9  C   LIG     1      17.104  36.142  20.792  1.00  0.00     0.001 A 
HETATM   10  C   LIG     1      17.315  37.342  21.480  1.00  0.00     0.014 A 
ENDROOT
TORSDOF 0
ENDMDL
MODEL 10
REMARK VINA RESULT:      -5.8      8.832     10.322
REMARK  0 active torsions:
REMARK  status: ('A' for Active; 'I' for Inactive)
ROOT
HETATM    1  C   LIG     1      15.276  31.747  15.004  1.00  0.00    -0.007 A 
HETATM    2  C   LIG     1      15.928  31.741  13.762  1.00  0.00     0.015 A 
HETATM    3  C   LIG     1      16.913  32.692  13.494  1.00  0.00     0.020 A 
HETATM    4  C   LIG     1      17.240  33.640  14.467  1.00  0.00     0.117 A 
HETATM    5  N   LIG     1      16.601  33.636  15.667  1.00  0.00    -0.260 NA
HETATM    6  C   LIG     1      15.636  32.723  15.960  1.00  0.00     0.066 A 
HETATM    7  C   LIG     1      14.998  32.747  17.206  1.00  0.00     0.032 A 
HETATM    8  C   LIG     1      14.007  31.806  17.501  1.00  0.00     0.002 A 
HETATM    9  C   LIG     1      13.649  30.839  16.556  1.00  0.00     0.001 A 
HETATM   10  C   LIG     1      14.281  30.807  15.308  1.00  0.00     0.014 A 
ENDROOT
TORSDOF 0
ENDMDL
MODEL 11
REMARK VINA RESULT:      -5.8      8.889     10.786
REMARK  0 active torsions:
REMARK  status: ('A' for Active; 'I' for Inactive)
ROOT
HETATM    1  C   LIG     1      14.620  31.180  15.699  1.00  0.00    -0.007 A 
HETATM    2  C   LIG     1      13.889  30.987  16.880  1.00  0.00     0.015 A 
HETATM    3  C   LIG     1      14.103  31.830  17.972  1.00  0.00     0.020 A 
HETATM    4  C   LIG     1      15.044  32.858  17.875  1.00  0.00     0.117 A 
HETATM    5  N   LIG     1      15.747  33.035  16.725  1.00  0.00    -0.260 NA
HETATM    6  C   LIG     1      15.562  32.231  15.643  1.00  0.00     0.066 A 
HETATM    7  C   LIG     1      16.303  32.442  14.474  1.00  0.00     0.032 A 
HETATM    8  C   LIG     1      16.109  31.612  13.365  1.00  0.00     0.002 A 
HETATM    9  C   LIG     1      15.176  30.570  13.419  1.00  0.00     0.001 A 
HETATM   10  C   LIG     1      14.431  30.352  14.583  1.00  0.00     0.014 A 
ENDROOT
TORSDOF 0
ENDMDL
MODEL 12
REMARK VINA RESULT:      -5.7      9.923     11.455
REMARK  0 active torsions:
REMARK  status: ('A' for Active; 'I' for Inactive)
ROOT
HETATM    1  C   LIG     1      15.336  31.982  15.346  1.00  0.00    -0.007 A 
HETATM    2  C   LIG     1      16.017  33.108  15.829  1.00  0.00     0.015 A 
HETATM    3  C   LIG     1      17.058  33.660  15.080  1.00  0.00     0.020 A 
HETATM    4  C   LIG     1      17.410  33.083  13.857  1.00  0.00     0.117 A 
HETATM    5  N   LIG     1      16.742  31.991  13.399  1.00  0.00    -0.260 NA
HETATM    6  C   LIG     1      15.722  31.430  14.104  1.00  0.00     0.066 A 
HETATM    7  C   LIG     1      15.056  30.305  13.602  1.00  0.00     0.032 A 
HETATM    8  C   LIG     1      14.009  29.731  14.332  1.00  0.00     0.002 A 
HETATM    9  C   LIG     1      13.625  30.277  15.561  1.00  0.00     0.001 A 
HETATM   10  C   LIG     1      14.285  31.400  16.070  1.00  0.00     0.014 A 
ENDROOT
TORSDOF 0
ENDMDL
MODEL 13
REMARK VINA RESULT:      -5.6      9.501     11.146
REMARK  0 active torsions:
REMARK  status: ('A' for Active; 'I' for Inactive)
ROOT
HETATM    1  C   LIG     1      14.136  31.063  15.626  1.00  0.00    -0.007 A 
HETATM    2  C   LIG     1      13.536  29.906  15.109  1.00  0.00     0.015 A 
HETATM    3  C   LIG     1      14.145  29.223  14.055  1.00  0.00     0.020 A 
HETATM    4  C   LIG     1      15.348  29.700  13.527  1.00  0.00     0.117 A 
HETATM    5  N   LIG     1      15.920  30.823  14.037  1.00  0.00    -0.260 NA
HETATM    6  C   LIG     1      15.352  31.512  15.064  1.00  0.00     0.066 A 
HETATM    7  C   LIG     1      15.968  32.665  15.565  1.00  0.00     0.032 A 
HETATM    8  C   LIG     1      15.379  33.369  16.620  1.00  0.00     0.002 A 
HETATM    9  C   LIG     1      14.176  32.926  17.178  1.00  0.00     0.001 A 
HETATM   10  C   LIG     1      13.552  31.775  16.684  1.00  0.00     0.014 A 
ENDROOT
TORSDOF 0
ENDMDL
MODEL 14
REMARK VINA RESULT:      -5.5      3.198      3.998
REMARK  0 active torsions:
REMARK  status: ('A' for Active; 'I' for Inactive)
ROOT
HETATM    1  C   LIG     1      17.200  37.042  21.321  1.00  0.00    -0.007 A 
HETATM    2  C   LIG     1      18.244  37.977  21.339  1.00  0.00     0.015 A 
HETATM    3  C   LIG     1      18.151  39.104  22.158  1.00  0.00     0.020 A 
HETATM    4  C   LIG     1      17.016  39.286  22.953  1.00  0.00     0.117 A 
HETATM    5  N   LIG     1      16.010  38.372  22.928  1.00  0.00    -0.260 NA
HETATM    6  C   LIG     1      16.070  37.264  22.141  1.00  0.00     0.066 A 
HETATM    7  C   LIG     1      15.015  36.343  22.139  1.00  0.00     0.032 A 
HETATM    8  C   LIG     1      15.083  35.206  21.327  1.00  0.00     0.002 A 
HETATM    9  C   LIG     1      16.200  34.985  20.516  1.00  0.00     0.001 A 
HETATM   10  C   LIG     1      17.259  35.899  20.510  1.00  0.00     0.014 A 
ENDROOT
TORSDOF 0
ENDMDL
MODEL 15
REMARK VINA RESULT:      -5.5      9.230     11.062
REMARK  0 active torsions:
REMARK  status: ('A' for Active; 'I' for Inactive)
ROOT
HETATM    1  C   LIG     1      15.245  31.500  15.105  1.00  0.00    -0.007 A 
HETATM    2  C   LIG     1      16.174  32.529  15.311  1.00  0.00     0.015 A 
HETATM    3  C   LIG     1      15.945  33.479  16.308  1.00  0.00     0.020 A 
HETATM    4  C   LIG     1      14.791  33.392  17.091  1.00  0.00     0.117 A 
HETATM    5  N   LIG     1      13.897  32.389  16.882  1.00  0.00    -0.260 NA
HETATM    6  C   LIG     1      14.091  31.448  15.919  1.00  0.00     0.066 A 
HETATM    7  C   LIG     1      13.149  30.429  15.731  1.00  0.00     0.032 A 
HETATM    8  C   LIG     1      13.353  29.465  14.739  1.00  0.00     0.002 A 
HETATM    9  C   LIG     1      14.495  29.514  13.932  1.00  0.00     0.001 A 
HETATM   10  C   LIG     1      15.441  30.529  14.112  1.00  0.00     0.014 A 
ENDROOT
TORSDOF 0
ENDMDL
MODEL 16
REMARK VINA RESULT:      -5.3      9.545     11.204
REMARK  0 active torsions:
REMARK  status: ('A' for Active; 'I' for Inactive)
ROOT
HETATM    1  C   LIG     1      15.156  31.356  15.127  1.00  0.00    -0.007 A 
HETATM    2  C   LIG     1      15.632  30.557  14.077  1.00  0.00     0.015 A 
HETATM    3  C   LIG     1      14.884  29.458  13.651  1.00  0.00     0.020 A 
HETATM    4  C   LIG     1      13.670  29.165  14.277  1.00  0.00     0.117 A 
HETATM    5  N   LIG     1      13.219  29.947  15.294  1.00  0.00    -0.260 NA
HETATM    6  C   LIG     1      13.923  31.026  15.732  1.00  0.00     0.066 A 
HETATM    7  C   LIG     1      13.429  31.810  16.782  1.00  0.00     0.032 A 
HETATM    8  C   LIG     1      14.157  32.917  17.229  1.00  0.00     0.002 A 
HETATM    9  C   LIG     1      15.378  33.246  16.630  1.00  0.00     0.001 A 
HETATM   10  C   LIG     1      15.880  32.469  15.581  1.00  0.00     0.014 A 
ENDROOT
TORSDOF 0
ENDMDL
MODEL 17
REMARK VINA RESULT:      -5.2      9.164     10.789
REMARK  0 active torsions:
REMARK  status: ('A' for Active; 'I' for Inactive)
ROOT
HETATM    1  C   LIG     1      15.440  32.117  15.450  1.00  0.00    -0.007 A 
HETATM    2  C   LIG     1      16.121  32.209  14.228  1.00  0.00     0.015 A 
HETATM    3  C   LIG     1      15.892  31.255  13.234  1.00  0.00     0.020 A 
HETATM    4  C   LIG     1      14.985  30.219  13.470  1.00  0.00     0.117 A 
HETATM    5  N   LIG     1      14.330  30.140  14.658  1.00  0.00    -0.260 NA
HETATM    6  C   LIG     1      14.530  31.053  15.647  1.00  0.00     0.066 A 
HETATM    7  C   LIG     1      13.839  30.942  16.859  1.00  0.00     0.032 A 
HETATM    8  C   LIG     1      14.050  31.883  17.872  1.00  0.00     0.002 A 
HETATM    9  C   LIG     1      14.949  32.937  17.679  1.00  0.00     0.001 A 
HETATM   10  C   LIG     1      15.645  33.056  16.471  1.00  0.00     0.014 A 
ENDROOT
TORSDOF 0
ENDMDL
MODEL 18
REMARK VINA RESULT:      -5.1      9.295     11.031
REMARK  0 active torsions:
REMARK  status: ('A' for Active; 'I' for Inactive)
ROOT
HETATM    1  C   LIG     1      15.562  32.400  15.821  1.00  0.00    -0.007 A 
HETATM    2  C   LIG     1      14.993  32.499  17.098  1.00  0.00     0.015 A 
HETATM    3  C   LIG     1      13.941  31.654  17.455  1.00  0.00     0.020 A 
HETATM    4  C   LIG     1      13.466  30.717  16.534  1.00  0.00     0.117 A 
HETATM    5  N   LIG     1      14.026  30.630  15.298  1.00  0.00    -0.260 NA
HETATM    6  C   LIG     1      15.053  31.438  14.919  1.00  0.00     0.066 A 
HETATM    7  C   LIG     1      15.605  31.322  13.638  1.00  0.00     0.032 A 
HETATM    8  C   LIG     1      16.660  32.157  13.254  1.00  0.00     0.002 A 
HETATM    9  C   LIG     1      17.166  33.109  14.146  1.00  0.00     0.001 A 
HETATM   10  C   LIG     1      16.620  33.233  15.428  1.00  0.00     0.014 A 
ENDROOT
TORSDOF 0
ENDMDL
