REMARK  0 active torsions:
REMARK  status: ('A' for Active; 'I' for Inactive)
ROOT
HETATM    1  C   LIG     1      -0.158  -0.556  -0.054  1.00  0.00    -0.007 A 
HETATM    2  C   LIG     1      -1.463  -1.065   0.000  1.00  0.00     0.015 A 
HETATM    3  C   LIG     1      -2.537  -0.196   0.202  1.00  0.00     0.020 A 
HETATM    4  C   LIG     1      -2.298   1.173   0.348  1.00  0.00     0.117 A 
HETATM    5  N   LIG     1      -1.028   1.655   0.294  1.00  0.00    -0.260 NA
HETATM    6  C   LIG     1       0.040   0.835   0.098  1.00  0.00     0.066 A 
HETATM    7  C   LIG     1       1.335   1.365   0.048  1.00  0.00     0.032 A 
HETATM    8  C   LIG     1       2.429   0.517  -0.153  1.00  0.00     0.002 A 
HETATM    9  C   LIG     1       2.235  -0.860  -0.304  1.00  0.00     0.001 A 
HETATM   10  C   LIG     1       0.945  -1.399  -0.255  1.00  0.00     0.014 A 
ENDROOT
TORSDOF 0
