MODEL 1
REMARK VINA RESULT:      -7.8      0.000      0.000
REMARK  0 active torsions:
REMARK  status: ('A' for Active; 'I' for Inactive)
ROOT
HETATM    1  C   LIG     1      17.579  37.236  24.648  1.00  0.00    -0.026 A 
HETATM    2  C   LIG     1      18.057  37.347  25.963  1.00  0.00     0.012 A 
HETATM    3  C   LIG     1      18.211  36.203  26.752  1.00  0.00     0.001 A 
HETATM    4  C   LIG     1      17.891  34.944  26.235  1.00  0.00     0.001 A 
HETATM    5  C   LIG     1      17.413  34.820  24.927  1.00  0.00     0.012 A 
HETATM    6  C   LIG     1      17.253  35.961  24.124  1.00  0.00    -0.026 A 
HETATM    7  C   LIG     1      16.776  35.850  22.810  1.00  0.00     0.012 A 
HETATM    8  C   LIG     1      16.622  36.995  22.021  1.00  0.00     0.001 A 
HETATM    9  C   LIG     1      16.942  38.253  22.537  1.00  0.00     0.001 A 
HETATM   10  C   LIG     1      17.420  38.378  23.846  1.00  0.00     0.012 A 
ENDROOT
TORSDOF 0
ENDMDL
MODEL 2
REMARK VINA RESULT:      -7.8      0.006      3.437
REMARK  0 active torsions:
REMARK  status: ('A' for Active; 'I' for Inactive)
ROOT
HETATM    1  C   LIG     1      17.579  37.237  24.650  1.00  0.00    -0.026 A 
HETATM    2  C   LIG     1      17.423  38.380  23.850  1.00  0.00     0.012 A 
HETATM    3  C   LIG     1      16.948  38.259  22.541  1.00  0.00     0.001 A 
HETATM    4  C   LIG     1      16.626  37.002  22.021  1.00  0.00     0.001 A 
HETATM    5  C   LIG     1      16.778  35.855  22.807  1.00  0.00     0.012 A 
HETATM    6  C   LIG     1      17.254  35.962  24.124  1.00  0.00    -0.026 A 
HETATM    7  C   LIG     1      17.411  34.820  24.924  1.00  0.00     0.012 A 
HETATM    8  C   LIG     1      17.885  34.940  26.233  1.00  0.00     0.001 A 
HETATM    9  C   LIG     1      18.207  36.198  26.752  1.00  0.00     0.001 A 
HETATM   10  C   LIG     1      18.055  37.344  25.966  1.00  0.00     0.012 A 
ENDROOT
TORSDOF 0
ENDMDL
MODEL 3
REMARK VINA RESULT:      -7.8      0.023      2.082
REMARK  0 active torsions:
REMARK  status: ('A' for Active; 'I' for Inactive)
ROOT
HETATM    1  C   LIG     1      17.258  35.953  24.133  1.00  0.00    -0.026 A 
HETATM    2  C   LIG     1      17.404  34.811  24.936  1.00  0.00     0.012 A 
HETATM    3  C   LIG     1      17.885  34.931  26.244  1.00  0.00     0.001 A 
HETATM    4  C   LIG     1      18.221  36.186  26.758  1.00  0.00     0.001 A 
HETATM    5  C   LIG     1      18.081  37.332  25.968  1.00  0.00     0.012 A 
HETATM    6  C   LIG     1      17.600  37.225  24.653  1.00  0.00    -0.026 A 
HETATM    7  C   LIG     1      17.454  38.367  23.850  1.00  0.00     0.012 A 
HETATM    8  C   LIG     1      16.973  38.247  22.542  1.00  0.00     0.001 A 
HETATM    9  C   LIG     1      16.637  36.992  22.028  1.00  0.00     0.001 A 
HETATM   10  C   LIG     1      16.777  35.846  22.818  1.00  0.00     0.012 A 
ENDROOT
TORSDOF 0
ENDMDL
MODEL 4
REMARK VINA RESULT:      -7.8      0.021      4.018
REMARK  0 active torsions:
REMARK  status: ('A' for Active; 'I' for Inactive)
ROOT
HETATM    1  C   LIG     1      17.252  35.950  24.131  1.00  0.00    -0.026 A 
HETATM    2  C   LIG     1      16.769  35.837  22.818  1.00  0.00     0.012 A 
HETATM    3  C   LIG     1      16.627  36.979  22.024  1.00  0.00     0.001 A 
HETATM    4  C   LIG     1      16.965  38.237  22.531  1.00  0.00     0.001 A 
HETATM    5  C   LIG     1      17.447  38.363  23.838  1.00  0.00     0.012 A 
HETATM    6  C   LIG     1      17.594  37.224  24.647  1.00  0.00    -0.026 A 
HETATM    7  C   LIG     1      18.077  37.337  25.960  1.00  0.00     0.012 A 
HETATM    8  C   LIG     1      18.219  36.195  26.754  1.00  0.00     0.001 A 
HETATM    9  C   LIG     1      17.881  34.937  26.247  1.00  0.00     0.001 A 
HETATM   10  C   LIG     1      17.399  34.811  24.940  1.00  0.00     0.012 A 
ENDROOT
TORSDOF 0
ENDMDL
MODEL 5
REMARK VINA RESULT:      -7.4      2.934      5.030
REMARK  0 active torsions:
REMARK  status: ('A' for Active; 'I' for Inactive)
ROOT
HETATM    1  C   LIG     1      18.000  37.052  20.711  1.00  0.00    -0.026 A 
HETATM    2  C   LIG     1      18.961  36.860  19.706  1.00  0.00     0.012 A 
HETATM    3  C   LIG     1      19.836  37.896  19.366  1.00  0.00     0.001 A 
HETATM    4  C   LIG     1      19.761  39.126  20.025  1.00  0.00     0.001 A 
HETATM    5  C   LIG     1      18.808  39.331  21.028  1.00  0.00     0.012 A 
HETATM    6  C   LIG     1      17.923  38.299  21.379  1.00  0.00    -0.026 A 
HETATM    7  C   LIG     1      16.963  38.491  22.384  1.00  0.00     0.012 A 
HETATM    8  C   LIG     1      16.087  37.455  22.724  1.00  0.00     0.001 A 
HETATM    9  C   LIG     1      16.163  36.225  22.066  1.00  0.00     0.001 A 
HETATM   10  C   LIG     1      17.115  36.020  21.062  1.00  0.00     0.012 A 
ENDROOT
TORSDOF 0
ENDMDL
MODEL 6
REMARK VINA RESULT:      -7.4      2.942      4.502
REMARK  0 active torsions:
REMARK  status: ('A' for Active; 'I' for Inactive)
ROOT
HETATM    1  C   LIG     1      18.002  37.050  20.706  1.00  0.00    -0.026 A 
HETATM    2  C   LIG     1      17.116  36.019  21.053  1.00  0.00     0.012 A 
HETATM    3  C   LIG     1      16.161  36.222  22.054  1.00  0.00     0.001 A 
HETATM    4  C   LIG     1      16.082  37.452  22.712  1.00  0.00     0.001 A 
HETATM    5  C   LIG     1      16.959  38.488  22.377  1.00  0.00     0.012 A 
HETATM    6  C   LIG     1      17.924  38.297  21.374  1.00  0.00    -0.026 A 
HETATM    7  C   LIG     1      18.809  39.329  21.027  1.00  0.00     0.012 A 
HETATM    8  C   LIG     1      19.764  39.126  20.026  1.00  0.00     0.001 A 
HETATM    9  C   LIG     1      19.843  37.896  19.367  1.00  0.00     0.001 A 
HETATM   10  C   LIG     1      18.966  36.860  19.703  1.00  0.00     0.012 A 
ENDROOT
TORSDOF 0
ENDMDL
MODEL 7
REMARK VINA RESULT:      -7.4      2.951      4.027
REMARK  0 active torsions:
REMARK  status: ('A' for Active; 'I' for Inactive)
ROOT
HETATM    1  C   LIG     1      17.927  38.253  21.370  1.00  0.00    -0.026 A 
HETATM    2  C   LIG     1      16.957  38.422  22.371  1.00  0.00     0.012 A 
HETATM    3  C   LIG     1      16.079  37.378  22.679  1.00  0.00     0.001 A 
HETATM    4  C   LIG     1      16.163  36.162  21.994  1.00  0.00     0.001 A 
HETATM    5  C   LIG     1      17.124  35.981  20.995  1.00  0.00     0.012 A 
HETATM    6  C   LIG     1      18.012  37.022  20.675  1.00  0.00    -0.026 A 
HETATM    7  C   LIG     1      18.981  36.853  19.675  1.00  0.00     0.012 A 
HETATM    8  C   LIG     1      19.859  37.897  19.366  1.00  0.00     0.001 A 
HETATM    9  C   LIG     1      19.775  39.113  20.051  1.00  0.00     0.001 A 
HETATM   10  C   LIG     1      18.814  39.293  21.051  1.00  0.00     0.012 A 
ENDROOT
TORSDOF 0
ENDMDL
MODEL 8
REMARK VINA RESULT:      -7.4      2.958      4.594
REMARK  0 active torsions:
REMARK  status: ('A' for Active; 'I' for Inactive)
ROOT
HETATM    1  C   LIG     1      17.926  38.250  21.378  1.00  0.00    -0.026 A 
HETATM    2  C   LIG     1      18.819  39.287  21.065  1.00  0.00     0.012 A 
HETATM    3  C   LIG     1      19.786  39.104  20.071  1.00  0.00     0.001 A 
HETATM    4  C   LIG     1      19.868  37.889  19.385  1.00  0.00     0.001 A 
HETATM    5  C   LIG     1      18.985  36.848  19.687  1.00  0.00     0.012 A 
HETATM    6  C   LIG     1      18.010  37.018  20.683  1.00  0.00    -0.026 A 
HETATM    7  C   LIG     1      17.118  35.981  20.995  1.00  0.00     0.012 A 
HETATM    8  C   LIG     1      16.151  36.164  21.989  1.00  0.00     0.001 A 
HETATM    9  C   LIG     1      16.069  37.379  22.676  1.00  0.00     0.001 A 
HETATM   10  C   LIG     1      16.951  38.420  22.373  1.00  0.00     0.012 A 
ENDROOT
TORSDOF 0
ENDMDL
MODEL 9
REMARK VINA RESULT:      -6.8      0.849      1.543
REMARK  0 active torsions:
REMARK  status: ('A' for Active; 'I' for Inactive)
ROOT
HETATM    1  C   LIG     1      17.040  37.220  23.713  1.00  0.00    -0.026 A 
HETATM    2  C   LIG     1      17.247  38.231  24.664  1.00  0.00     0.012 A 
HETATM    3  C   LIG     1      17.656  37.900  25.960  1.00  0.00     0.001 A 
HETATM    4  C   LIG     1      17.861  36.564  26.314  1.00  0.00     0.001 A 
HETATM    5  C   LIG     1      17.657  35.547  25.376  1.00  0.00     0.012 A 
HETATM    6  C   LIG     1      17.246  35.865  24.072  1.00  0.00    -0.026 A 
HETATM    7  C   LIG     1      17.039  34.855  23.120  1.00  0.00     0.012 A 
HETATM    8  C   LIG     1      16.630  35.185  21.825  1.00  0.00     0.001 A 
HETATM    9  C   LIG     1      16.425  36.521  21.471  1.00  0.00     0.001 A 
HETATM   10  C   LIG     1      16.628  37.538  22.409  1.00  0.00     0.012 A 
ENDROOT
TORSDOF 0
ENDMDL
MODEL 10
REMARK VINA RESULT:      -6.0      9.052     11.040
REMARK  0 active torsions:
REMARK  status: ('A' for Active; 'I' for Inactive)
ROOT
HETATM    1  C   LIG     1      14.042  31.312  15.839  1.00  0.00    -0.026 A 
HETATM    2  C   LIG     1      13.774  32.226  16.870  1.00  0.00     0.012 A 
HETATM    3  C   LIG     1      14.667  33.269  17.132  1.00  0.00     0.001 A 
HETATM    4  C   LIG     1      15.831  33.407  16.371  1.00  0.00     0.001 A 
HETATM    5  C   LIG     1      16.111  32.503  15.341  1.00  0.00     0.012 A 
HETATM    6  C   LIG     1      15.222  31.451  15.067  1.00  0.00    -0.026 A 
HETATM    7  C   LIG     1      15.491  30.538  14.037  1.00  0.00     0.012 A 
HETATM    8  C   LIG     1      14.597  29.495  13.774  1.00  0.00     0.001 A 
HETATM    9  C   LIG     1      13.434  29.356  14.535  1.00  0.00     0.001 A 
HETATM   10  C   LIG     1      13.154  30.260  15.565  1.00  0.00     0.012 A 
ENDROOT
TORSDOF 0
ENDMDL
MODEL 11
REMARK VINA RESULT:      -6.0      9.042     11.116
REMARK  0 active torsions:
REMARK  status: ('A' for Active; 'I' for Inactive)
ROOT
HETATM    1  C   LIG     1      15.224  31.446  15.080  1.00  0.00    -0.026 A 
HETATM    2  C   LIG     1      15.488  30.523  14.056  1.00  0.00     0.012 A 
HETATM    3  C   LIG     1      14.586  29.486  13.797  1.00  0.00     0.001 A 
HETATM    4  C   LIG     1      13.418  29.364  14.555  1.00  0.00     0.001 A 
HETATM    5  C   LIG     1      13.143  30.277  15.578  1.00  0.00     0.012 A 
HETATM    6  C   LIG     1      14.041  31.322  15.849  1.00  0.00    -0.026 A 
HETATM    7  C   LIG     1      13.777  32.245  16.873  1.00  0.00     0.012 A 
HETATM    8  C   LIG     1      14.679  33.281  17.132  1.00  0.00     0.001 A 
HETATM    9  C   LIG     1      15.847  33.403  16.374  1.00  0.00     0.001 A 
HETATM   10  C   LIG     1      16.122  32.491  15.351  1.00  0.00     0.012 A 
ENDROOT
TORSDOF 0
ENDMDL
MODEL 12
REMARK VINA RESULT:      -6.0      9.030     11.119
REMARK  0 active torsions:
REMARK  status: ('A' for Active; 'I' for Inactive)
ROOT
HETATM    1  C   LIG     1      14.059  31.349  15.849  1.00  0.00    -0.026 A 
HETATM    2  C   LIG     1      13.155  30.307  15.594  1.00  0.00     0.012 A 
HETATM    3  C   LIG     1      13.413  29.389  14.570  1.00  0.00     0.001 A 
HETATM    4  C   LIG     1      14.572  29.505  13.798  1.00  0.00     0.001 A 
HETATM    5  C   LIG     1      15.481  30.539  14.041  1.00  0.00     0.012 A 
HETATM    6  C   LIG     1      15.234  31.467  15.065  1.00  0.00    -0.026 A 
HETATM    7  C   LIG     1      16.138  32.509  15.321  1.00  0.00     0.012 A 
HETATM    8  C   LIG     1      15.880  33.426  16.344  1.00  0.00     0.001 A 
HETATM    9  C   LIG     1      14.721  33.311  17.117  1.00  0.00     0.001 A 
HETATM   10  C   LIG     1      13.812  32.277  16.873  1.00  0.00     0.012 A 
ENDROOT
TORSDOF 0
ENDMDL
MODEL 13
REMARK VINA RESULT:      -5.9      9.039     10.987
REMARK  0 active torsions:
REMARK  status: ('A' for Active; 'I' for Inactive)
ROOT
HETATM    1  C   LIG     1      15.241  31.540  15.138  1.00  0.00    -0.026 A 
HETATM    2  C   LIG     1      15.985  32.656  15.548  1.00  0.00     0.012 A 
HETATM    3  C   LIG     1      15.535  33.448  16.609  1.00  0.00     0.001 A 
HETATM    4  C   LIG     1      14.343  33.131  17.267  1.00  0.00     0.001 A 
HETATM    5  C   LIG     1      13.592  32.022  16.868  1.00  0.00     0.012 A 
HETATM    6  C   LIG     1      14.032  31.219  15.803  1.00  0.00    -0.026 A 
HETATM    7  C   LIG     1      13.288  30.103  15.393  1.00  0.00     0.012 A 
HETATM    8  C   LIG     1      13.738  29.311  14.332  1.00  0.00     0.001 A 
HETATM    9  C   LIG     1      14.929  29.628  13.674  1.00  0.00     0.001 A 
HETATM   10  C   LIG     1      15.681  30.738  14.073  1.00  0.00     0.012 A 
ENDROOT
TORSDOF 0
ENDMDL
MODEL 14
REMARK VINA RESULT:      -5.8      8.927     10.713
REMARK  0 active torsions:
REMARK  status: ('A' for Active; 'I' for Inactive)
ROOT
HETATM    1  C   LIG     1      15.059  31.430  14.906  1.00  0.00    -0.026 A 
HETATM    2  C   LIG     1      14.002  30.599  15.309  1.00  0.00     0.012 A 
HETATM    3  C   LIG     1      13.461  30.727  16.593  1.00  0.00     0.001 A 
HETATM    4  C   LIG     1      13.969  31.681  17.479  1.00  0.00     0.001 A 
HETATM    5  C   LIG     1      15.022  32.514  17.089  1.00  0.00     0.012 A 
HETATM    6  C   LIG     1      15.575  32.396  15.804  1.00  0.00    -0.026 A 
HETATM    7  C   LIG     1      16.631  33.227  15.400  1.00  0.00     0.012 A 
HETATM    8  C   LIG     1      17.172  33.099  14.117  1.00  0.00     0.001 A 
HETATM    9  C   LIG     1      16.665  32.145  13.231  1.00  0.00     0.001 A 
HETATM   10  C   LIG     1      15.611  31.312  13.620  1.00  0.00     0.012 A 
ENDROOT
TORSDOF 0
ENDMDL
MODEL 15
REMARK VINA RESULT:      -5.8      8.936     11.016
REMARK  0 active torsions:
REMARK  status: ('A' for Active; 'I' for Inactive)
ROOT
HETATM    1  C   LIG     1      15.051  31.425  14.904  1.00  0.00    -0.026 A 
HETATM    2  C   LIG     1      15.607  31.309  13.621  1.00  0.00     0.012 A 
HETATM    3  C   LIG     1      16.661  32.144  13.236  1.00  0.00     0.001 A 
HETATM    4  C   LIG     1      17.166  33.096  14.126  1.00  0.00     0.001 A 
HETATM    5  C   LIG     1      16.620  33.222  15.407  1.00  0.00     0.012 A 
HETATM    6  C   LIG     1      15.561  32.391  15.806  1.00  0.00    -0.026 A 
HETATM    7  C   LIG     1      15.005  32.507  17.089  1.00  0.00     0.012 A 
HETATM    8  C   LIG     1      13.951  31.672  17.474  1.00  0.00     0.001 A 
HETATM    9  C   LIG     1      13.446  30.720  16.584  1.00  0.00     0.001 A 
HETATM   10  C   LIG     1      13.992  30.593  15.303  1.00  0.00     0.012 A 
ENDROOT
TORSDOF 0
ENDMDL
MODEL 16
REMARK VINA RESULT:      -5.8      8.905     10.816
REMARK  0 active torsions:
REMARK  status: ('A' for Active; 'I' for Inactive)
ROOT
HETATM    1  C   LIG     1      15.577  32.402  15.813  1.00  0.00    -0.026 A 
HETATM    2  C   LIG     1      16.631  33.229  15.393  1.00  0.00     0.012 A 
HETATM    3  C   LIG     1      17.159  33.091  14.106  1.00  0.00     0.001 A 
HETATM    4  C   LIG     1      16.641  32.132  13.231  1.00  0.00     0.001 A 
HETATM    5  C   LIG     1      15.592  31.301  13.637  1.00  0.00     0.012 A 
HETATM    6  C   LIG     1      15.053  31.429  14.927  1.00  0.00    -0.026 A 
HETATM    7  C   LIG     1      13.999  30.603  15.347  1.00  0.00     0.012 A 
HETATM    8  C   LIG     1      13.470  30.740  16.634  1.00  0.00     0.001 A 
HETATM    9  C   LIG     1      13.988  31.700  17.509  1.00  0.00     0.001 A 
HETATM   10  C   LIG     1      15.037  32.530  17.103  1.00  0.00     0.012 A 
ENDROOT
TORSDOF 0
ENDMDL
MODEL 17
REMARK VINA RESULT:      -5.8      3.116      4.121
REMARK  0 active torsions:
REMARK  status: ('A' for Active; 'I' for Inactive)
ROOT
HETATM    1  C   LIG     1      17.248  36.994  21.194  1.00  0.00    -0.026 A 
HETATM    2  C   LIG     1      17.244  35.853  20.377  1.00  0.00     0.012 A 
HETATM    3  C   LIG     1      16.181  34.947  20.442  1.00  0.00     0.001 A 
HETATM    4  C   LIG     1      15.117  35.173  21.321  1.00  0.00     0.001 A 
HETATM    5  C   LIG     1      15.109  36.306  22.141  1.00  0.00     0.012 A 
HETATM    6  C   LIG     1      16.170  37.223  22.085  1.00  0.00    -0.026 A 
HETATM    7  C   LIG     1      16.174  38.364  22.902  1.00  0.00     0.012 A 
HETATM    8  C   LIG     1      17.238  39.270  22.836  1.00  0.00     0.001 A 
HETATM    9  C   LIG     1      18.301  39.044  21.958  1.00  0.00     0.001 A 
HETATM   10  C   LIG     1      18.309  37.911  21.138  1.00  0.00     0.012 A 
ENDROOT
TORSDOF 0
ENDMDL
MODEL 18
REMARK VINA RESULT:      -5.4     12.499     13.709
REMARK  0 active torsions:
REMARK  status: ('A' for Active; 'I' for Inactive)
ROOT
HETATM    1  C   LIG     1      22.235  35.681  11.246  1.00  0.00    -0.026 A 
HETATM    2  C   LIG     1      23.161  36.682  10.915  1.00  0.00     0.012 A 
HETATM    3  C   LIG     1      24.106  37.101  11.856  1.00  0.00     0.001 A 
HETATM    4  C   LIG     1      24.134  36.526  13.130  1.00  0.00     0.001 A 
HETATM    5  C   LIG     1      23.217  35.528  13.473  1.00  0.00     0.012 A 
HETATM    6  C   LIG     1      22.262  35.098  12.537  1.00  0.00    -0.026 A 
HETATM    7  C   LIG     1      21.336  34.097  12.868  1.00  0.00     0.012 A 
HETATM    8  C   LIG     1      20.391  33.677  11.927  1.00  0.00     0.001 A 
HETATM    9  C   LIG     1      20.363  34.253  10.653  1.00  0.00     0.001 A 
HETATM   10  C   LIG     1      21.280  35.251  10.311  1.00  0.00     0.012 A 
ENDROOT
TORSDOF 0
ENDMDL
MODEL 19
REMARK VINA RESULT:      -5.4     12.519     13.815
REMARK  0 active torsions:
REMARK  status: ('A' for Active; 'I' for Inactive)
ROOT
HETATM    1  C   LIG     1      22.256  35.726  11.215  1.00  0.00    -0.026 A 
HETATM    2  C   LIG     1      21.313  35.316  10.260  1.00  0.00     0.012 A 
HETATM    3  C   LIG     1      20.380  34.324  10.577  1.00  0.00     0.001 A 
HETATM    4  C   LIG     1      20.380  33.738  11.846  1.00  0.00     0.001 A 
HETATM    5  C   LIG     1      21.314  34.137  12.807  1.00  0.00     0.012 A 
HETATM    6  C   LIG     1      22.257  35.131  12.501  1.00  0.00    -0.026 A 
HETATM    7  C   LIG     1      23.199  35.541  13.456  1.00  0.00     0.012 A 
HETATM    8  C   LIG     1      24.133  36.533  13.139  1.00  0.00     0.001 A 
HETATM    9  C   LIG     1      24.133  37.120  11.870  1.00  0.00     0.001 A 
HETATM   10  C   LIG     1      23.199  36.720  10.909  1.00  0.00     0.012 A 
ENDROOT
TORSDOF 0
ENDMDL
