REMARK  0 active torsions:
REMARK  status: ('A' for Active; 'I' for Inactive)
ROOT
HETATM    1  C   LIG     1       0.012   0.707   0.042  1.00  0.00    -0.026 A 
HETATM    2  C   LIG     1       1.239   1.375   0.174  1.00  0.00     0.012 A 
HETATM    3  C   LIG     1       2.432   0.647   0.222  1.00  0.00     0.001 A 
HETATM    4  C   LIG     1       2.409  -0.748   0.138  1.00  0.00     0.001 A 
HETATM    5  C   LIG     1       1.193  -1.426   0.007  1.00  0.00     0.012 A 
HETATM    6  C   LIG     1      -0.012  -0.707  -0.042  1.00  0.00    -0.026 A 
HETATM    7  C   LIG     1      -1.239  -1.375  -0.174  1.00  0.00     0.012 A 
HETATM    8  C   LIG     1      -2.432  -0.647  -0.222  1.00  0.00     0.001 A 
HETATM    9  C   LIG     1      -2.409   0.748  -0.138  1.00  0.00     0.001 A 
HETATM   10  C   LIG     1      -1.193   1.426  -0.007  1.00  0.00     0.012 A 
ENDROOT
TORSDOF 0
