REMARK  0 active torsions:
REMARK  status: ('A' for Active; 'I' for Inactive)
ROOT
HETATM    1  C   LIG     1      -3.338  -0.370   0.102  1.00  0.00     0.048 C 
HETATM    2  C   LIG     1      -1.894   0.004  -0.055  1.00  0.00    -0.061 A 
HETATM    3  C   LIG     1      -0.897  -0.859   0.426  1.00  0.00     0.019 A 
HETATM    4  C   LIG     1       0.458  -0.524   0.287  1.00  0.00    -0.025 A 
HETATM    5  C   LIG     1       1.460  -1.383   0.766  1.00  0.00     0.012 A 
HETATM    6  C   LIG     1       2.808  -1.038   0.622  1.00  0.00     0.001 A 
HETATM    7  C   LIG     1       3.164   0.163   0.002  1.00  0.00     0.001 A 
HETATM    8  C   LIG     1       2.176   1.027  -0.478  1.00  0.00     0.012 A 
HETATM    9  C   LIG     1       0.820   0.693  -0.341  1.00  0.00    -0.026 A 
HETATM   10  C   LIG     1      -0.181   1.551  -0.819  1.00  0.00     0.013 A 
HETATM   11  C   LIG     1      -1.528   1.209  -0.676  1.00  0.00     0.007 A 
ENDROOT
TORSDOF 0
