REMARK  0 active torsions:
REMARK  status: ('A' for Active; 'I' for Inactive)
ROOT
HETATM    1 CL   LIG     1      -3.420   2.463   0.051  1.00  0.00    -0.084 Cl
HETATM    2  C   LIG     1      -2.158   1.246   0.019  1.00  0.00     0.034 A 
HETATM    3  C   LIG     1      -0.814   1.632   0.056  1.00  0.00     0.036 A 
HETATM    4  C   LIG     1       0.199   0.661   0.031  1.00  0.00    -0.024 A 
HETATM    5  C   LIG     1       1.552   1.035   0.068  1.00  0.00     0.012 A 
HETATM    6  C   LIG     1       2.551   0.058   0.042  1.00  0.00     0.001 A 
HETATM    7  C   LIG     1       2.210  -1.296  -0.020  1.00  0.00     0.001 A 
HETATM    8  C   LIG     1       0.867  -1.683  -0.058  1.00  0.00     0.012 A 
HETATM    9  C   LIG     1      -0.146  -0.712  -0.032  1.00  0.00    -0.026 A 
HETATM   10  C   LIG     1      -1.498  -1.086  -0.069  1.00  0.00     0.014 A 
HETATM   11  C   LIG     1      -2.498  -0.110  -0.043  1.00  0.00     0.024 A 
ENDROOT
TORSDOF 0
