MODEL 1
REMARK VINA RESULT:      -8.0      0.000      0.000
REMARK  0 active torsions:
REMARK  status: ('A' for Active; 'I' for Inactive)
ROOT
HETATM    1 CL   LIG     1      15.954  35.425  20.329  1.00  0.00    -0.084 Cl
HETATM    2  C   LIG     1      16.546  36.043  21.859  1.00  0.00     0.034 A 
HETATM    3  C   LIG     1      16.804  35.163  22.915  1.00  0.00     0.036 A 
HETATM    4  C   LIG     1      17.278  35.653  24.141  1.00  0.00    -0.024 A 
HETATM    5  C   LIG     1      17.541  34.780  25.209  1.00  0.00     0.012 A 
HETATM    6  C   LIG     1      18.013  35.282  26.426  1.00  0.00     0.001 A 
HETATM    7  C   LIG     1      18.227  36.654  26.586  1.00  0.00     0.001 A 
HETATM    8  C   LIG     1      17.969  37.535  25.531  1.00  0.00     0.012 A 
HETATM    9  C   LIG     1      17.495  37.044  24.305  1.00  0.00    -0.026 A 
HETATM   10  C   LIG     1      17.232  37.917  23.238  1.00  0.00     0.014 A 
HETATM   11  C   LIG     1      16.761  37.416  22.021  1.00  0.00     0.024 A 
ENDROOT
TORSDOF 0
ENDMDL
MODEL 2
REMARK VINA RESULT:      -7.7      1.451      2.426
REMARK  0 active torsions:
REMARK  status: ('A' for Active; 'I' for Inactive)
ROOT
HETATM    1 CL   LIG     1      17.694  39.330  21.297  1.00  0.00    -0.084 Cl
HETATM    2  C   LIG     1      17.557  37.986  22.415  1.00  0.00     0.034 A 
HETATM    3  C   LIG     1      18.001  38.127  23.734  1.00  0.00     0.036 A 
HETATM    4  C   LIG     1      17.893  37.054  24.632  1.00  0.00    -0.024 A 
HETATM    5  C   LIG     1      18.334  37.181  25.959  1.00  0.00     0.012 A 
HETATM    6  C   LIG     1      18.221  36.105  26.843  1.00  0.00     0.001 A 
HETATM    7  C   LIG     1      17.669  34.895  26.412  1.00  0.00     0.001 A 
HETATM    8  C   LIG     1      17.226  34.754  25.094  1.00  0.00     0.012 A 
HETATM    9  C   LIG     1      17.333  35.827  24.196  1.00  0.00    -0.026 A 
HETATM   10  C   LIG     1      16.892  35.699  22.870  1.00  0.00     0.014 A 
HETATM   11  C   LIG     1      17.004  36.775  21.985  1.00  0.00     0.024 A 
ENDROOT
TORSDOF 0
ENDMDL
MODEL 3
REMARK VINA RESULT:      -7.5      2.914      4.345
REMARK  0 active torsions:
REMARK  status: ('A' for Active; 'I' for Inactive)
ROOT
HETATM    1 CL   LIG     1      15.123  34.437  21.627  1.00  0.00    -0.084 Cl
HETATM    2  C   LIG     1      16.185  35.827  21.508  1.00  0.00     0.034 A 
HETATM    3  C   LIG     1      17.222  35.836  20.569  1.00  0.00     0.036 A 
HETATM    4  C   LIG     1      18.073  36.948  20.471  1.00  0.00    -0.024 A 
HETATM    5  C   LIG     1      19.118  36.970  19.532  1.00  0.00     0.012 A 
HETATM    6  C   LIG     1      19.959  38.082  19.445  1.00  0.00     0.001 A 
HETATM    7  C   LIG     1      19.766  39.179  20.290  1.00  0.00     0.001 A 
HETATM    8  C   LIG     1      18.730  39.171  21.229  1.00  0.00     0.012 A 
HETATM    9  C   LIG     1      17.878  38.060  21.327  1.00  0.00    -0.026 A 
HETATM   10  C   LIG     1      16.834  38.038  22.264  1.00  0.00     0.014 A 
HETATM   11  C   LIG     1      15.992  36.926  22.353  1.00  0.00     0.024 A 
ENDROOT
TORSDOF 0
ENDMDL
MODEL 4
REMARK VINA RESULT:      -7.3      2.907      5.152
REMARK  0 active torsions:
REMARK  status: ('A' for Active; 'I' for Inactive)
ROOT
HETATM    1 CL   LIG     1      17.037  38.226  25.376  1.00  0.00    -0.084 Cl
HETATM    2  C   LIG     1      17.378  37.818  23.705  1.00  0.00     0.034 A 
HETATM    3  C   LIG     1      18.068  38.722  22.892  1.00  0.00     0.036 A 
HETATM    4  C   LIG     1      18.343  38.399  21.554  1.00  0.00    -0.024 A 
HETATM    5  C   LIG     1      19.036  39.298  20.727  1.00  0.00     0.012 A 
HETATM    6  C   LIG     1      19.303  38.964  19.396  1.00  0.00     0.001 A 
HETATM    7  C   LIG     1      18.883  37.734  18.881  1.00  0.00     0.001 A 
HETATM    8  C   LIG     1      18.192  36.830  19.693  1.00  0.00     0.012 A 
HETATM    9  C   LIG     1      17.918  37.153  21.031  1.00  0.00    -0.026 A 
HETATM   10  C   LIG     1      17.225  36.255  21.857  1.00  0.00     0.014 A 
HETATM   11  C   LIG     1      16.958  36.587  23.188  1.00  0.00     0.024 A 
ENDROOT
TORSDOF 0
ENDMDL
MODEL 5
REMARK VINA RESULT:      -7.0      2.664      3.820
REMARK  0 active torsions:
REMARK  status: ('A' for Active; 'I' for Inactive)
ROOT
HETATM    1 CL   LIG     1      19.776  39.166  18.076  1.00  0.00    -0.084 Cl
HETATM    2  C   LIG     1      19.004  38.667  19.569  1.00  0.00     0.034 A 
HETATM    3  C   LIG     1      18.553  37.351  19.716  1.00  0.00     0.036 A 
HETATM    4  C   LIG     1      17.935  36.947  20.910  1.00  0.00    -0.024 A 
HETATM    5  C   LIG     1      17.478  35.629  21.071  1.00  0.00     0.012 A 
HETATM    6  C   LIG     1      16.864  35.241  22.265  1.00  0.00     0.001 A 
HETATM    7  C   LIG     1      16.702  36.160  23.305  1.00  0.00     0.001 A 
HETATM    8  C   LIG     1      17.152  37.475  23.159  1.00  0.00     0.012 A 
HETATM    9  C   LIG     1      17.771  37.879  21.965  1.00  0.00    -0.026 A 
HETATM   10  C   LIG     1      18.227  39.196  21.805  1.00  0.00     0.014 A 
HETATM   11  C   LIG     1      18.842  39.586  20.612  1.00  0.00     0.024 A 
ENDROOT
TORSDOF 0
ENDMDL
MODEL 6
REMARK VINA RESULT:      -6.7      2.624      3.956
REMARK  0 active torsions:
REMARK  status: ('A' for Active; 'I' for Inactive)
ROOT
HETATM    1 CL   LIG     1      19.996  39.269  18.572  1.00  0.00    -0.084 Cl
HETATM    2  C   LIG     1      19.059  38.382  19.759  1.00  0.00     0.034 A 
HETATM    3  C   LIG     1      18.688  38.998  20.959  1.00  0.00     0.036 A 
HETATM    4  C   LIG     1      17.938  38.291  21.911  1.00  0.00    -0.024 A 
HETATM    5  C   LIG     1      17.558  38.898  23.119  1.00  0.00     0.012 A 
HETATM    6  C   LIG     1      16.812  38.182  24.060  1.00  0.00     0.001 A 
HETATM    7  C   LIG     1      16.438  36.860  23.804  1.00  0.00     0.001 A 
HETATM    8  C   LIG     1      16.810  36.243  22.605  1.00  0.00     0.012 A 
HETATM    9  C   LIG     1      17.559  36.950  21.652  1.00  0.00    -0.026 A 
HETATM   10  C   LIG     1      17.938  36.344  20.445  1.00  0.00     0.014 A 
HETATM   11  C   LIG     1      18.685  37.058  19.504  1.00  0.00     0.024 A 
ENDROOT
TORSDOF 0
ENDMDL
MODEL 7
REMARK VINA RESULT:      -6.6      2.193      3.970
REMARK  0 active torsions:
REMARK  status: ('A' for Active; 'I' for Inactive)
ROOT
HETATM    1 CL   LIG     1      16.964  34.576  26.252  1.00  0.00    -0.084 Cl
HETATM    2  C   LIG     1      17.284  35.867  25.109  1.00  0.00     0.034 A 
HETATM    3  C   LIG     1      17.260  35.605  23.735  1.00  0.00     0.036 A 
HETATM    4  C   LIG     1      17.515  36.635  22.816  1.00  0.00    -0.024 A 
HETATM    5  C   LIG     1      17.493  36.386  21.435  1.00  0.00     0.012 A 
HETATM    6  C   LIG     1      17.750  37.421  20.531  1.00  0.00     0.001 A 
HETATM    7  C   LIG     1      18.029  38.709  20.996  1.00  0.00     0.001 A 
HETATM    8  C   LIG     1      18.055  38.971  22.369  1.00  0.00     0.012 A 
HETATM    9  C   LIG     1      17.798  37.941  23.288  1.00  0.00    -0.026 A 
HETATM   10  C   LIG     1      17.820  38.191  24.668  1.00  0.00     0.014 A 
HETATM   11  C   LIG     1      17.564  37.157  25.573  1.00  0.00     0.024 A 
ENDROOT
TORSDOF 0
ENDMDL
MODEL 8
REMARK VINA RESULT:      -6.4      2.389      4.042
REMARK  0 active torsions:
REMARK  status: ('A' for Active; 'I' for Inactive)
ROOT
HETATM    1 CL   LIG     1      18.280  36.279  27.230  1.00  0.00    -0.084 Cl
HETATM    2  C   LIG     1      17.885  36.550  25.543  1.00  0.00     0.034 A 
HETATM    3  C   LIG     1      17.450  35.485  24.747  1.00  0.00     0.036 A 
HETATM    4  C   LIG     1      17.132  35.698  23.397  1.00  0.00    -0.024 A 
HETATM    5  C   LIG     1      16.694  34.638  22.587  1.00  0.00     0.012 A 
HETATM    6  C   LIG     1      16.381  34.863  21.244  1.00  0.00     0.001 A 
HETATM    7  C   LIG     1      16.501  36.145  20.699  1.00  0.00     0.001 A 
HETATM    8  C   LIG     1      16.937  37.210  21.493  1.00  0.00     0.012 A 
HETATM    9  C   LIG     1      17.253  36.997  22.844  1.00  0.00    -0.026 A 
HETATM   10  C   LIG     1      17.691  38.057  23.653  1.00  0.00     0.014 A 
HETATM   11  C   LIG     1      18.004  37.832  24.996  1.00  0.00     0.024 A 
ENDROOT
TORSDOF 0
ENDMDL
MODEL 9
REMARK VINA RESULT:      -6.2      8.842     10.767
REMARK  0 active torsions:
REMARK  status: ('A' for Active; 'I' for Inactive)
ROOT
HETATM    1 CL   LIG     1      12.833  27.710  13.779  1.00  0.00    -0.084 Cl
HETATM    2  C   LIG     1      13.728  29.129  14.290  1.00  0.00     0.034 A 
HETATM    3  C   LIG     1      13.238  29.926  15.330  1.00  0.00     0.036 A 
HETATM    4  C   LIG     1      13.952  31.062  15.743  1.00  0.00    -0.024 A 
HETATM    5  C   LIG     1      13.472  31.871  16.785  1.00  0.00     0.012 A 
HETATM    6  C   LIG     1      14.192  33.000  17.186  1.00  0.00     0.001 A 
HETATM    7  C   LIG     1      15.393  33.330  16.553  1.00  0.00     0.001 A 
HETATM    8  C   LIG     1      15.883  32.534  15.513  1.00  0.00     0.012 A 
HETATM    9  C   LIG     1      15.170  31.397  15.101  1.00  0.00    -0.026 A 
HETATM   10  C   LIG     1      15.650  30.589  14.060  1.00  0.00     0.014 A 
HETATM   11  C   LIG     1      14.931  29.460  13.658  1.00  0.00     0.024 A 
ENDROOT
TORSDOF 0
ENDMDL
MODEL 10
REMARK VINA RESULT:      -6.2      8.656     10.311
REMARK  0 active torsions:
REMARK  status: ('A' for Active; 'I' for Inactive)
ROOT
HETATM    1 CL   LIG     1      18.395  33.959  13.559  1.00  0.00    -0.084 Cl
HETATM    2  C   LIG     1      17.064  32.940  14.074  1.00  0.00     0.034 A 
HETATM    3  C   LIG     1      16.522  33.092  15.355  1.00  0.00     0.036 A 
HETATM    4  C   LIG     1      15.457  32.279  15.771  1.00  0.00    -0.024 A 
HETATM    5  C   LIG     1      14.904  32.422  17.054  1.00  0.00     0.012 A 
HETATM    6  C   LIG     1      13.843  31.605  17.456  1.00  0.00     0.001 A 
HETATM    7  C   LIG     1      13.327  30.643  16.584  1.00  0.00     0.001 A 
HETATM    8  C   LIG     1      13.868  30.489  15.304  1.00  0.00     0.012 A 
HETATM    9  C   LIG     1      14.932  31.303  14.888  1.00  0.00    -0.026 A 
HETATM   10  C   LIG     1      15.485  31.160  13.606  1.00  0.00     0.014 A 
HETATM   11  C   LIG     1      16.545  31.976  13.202  1.00  0.00     0.024 A 
ENDROOT
TORSDOF 0
ENDMDL
MODEL 11
REMARK VINA RESULT:      -6.1      0.908      2.317
REMARK  0 active torsions:
REMARK  status: ('A' for Active; 'I' for Inactive)
ROOT
HETATM    1 CL   LIG     1      16.084  35.569  19.699  1.00  0.00    -0.084 Cl
HETATM    2  C   LIG     1      16.523  35.756  21.386  1.00  0.00     0.034 A 
HETATM    3  C   LIG     1      16.636  37.035  21.941  1.00  0.00     0.036 A 
HETATM    4  C   LIG     1      16.987  37.189  23.291  1.00  0.00    -0.024 A 
HETATM    5  C   LIG     1      17.103  38.467  23.861  1.00  0.00     0.012 A 
HETATM    6  C   LIG     1      17.454  38.606  25.206  1.00  0.00     0.001 A 
HETATM    7  C   LIG     1      17.691  37.475  25.993  1.00  0.00     0.001 A 
HETATM    8  C   LIG     1      17.580  36.196  25.439  1.00  0.00     0.012 A 
HETATM    9  C   LIG     1      17.227  36.043  24.089  1.00  0.00    -0.026 A 
HETATM   10  C   LIG     1      17.112  34.765  23.520  1.00  0.00     0.014 A 
HETATM   11  C   LIG     1      16.761  34.624  22.174  1.00  0.00     0.024 A 
ENDROOT
TORSDOF 0
ENDMDL
MODEL 12
REMARK VINA RESULT:      -6.1      9.105     10.578
REMARK  0 active torsions:
REMARK  status: ('A' for Active; 'I' for Inactive)
ROOT
HETATM    1 CL   LIG     1      18.328  33.363  12.662  1.00  0.00    -0.084 Cl
HETATM    2  C   LIG     1      17.108  32.864  13.818  1.00  0.00     0.034 A 
HETATM    3  C   LIG     1      16.253  31.799  13.515  1.00  0.00     0.036 A 
HETATM    4  C   LIG     1      15.276  31.396  14.438  1.00  0.00    -0.024 A 
HETATM    5  C   LIG     1      14.411  30.328  14.146  1.00  0.00     0.012 A 
HETATM    6  C   LIG     1      13.442  29.937  15.074  1.00  0.00     0.001 A 
HETATM    7  C   LIG     1      13.327  30.604  16.297  1.00  0.00     0.001 A 
HETATM    8  C   LIG     1      14.181  31.669  16.600  1.00  0.00     0.012 A 
HETATM    9  C   LIG     1      15.159  32.072  15.678  1.00  0.00    -0.026 A 
HETATM   10  C   LIG     1      16.023  33.139  15.969  1.00  0.00     0.014 A 
HETATM   11  C   LIG     1      16.993  33.531  15.043  1.00  0.00     0.024 A 
ENDROOT
TORSDOF 0
ENDMDL
MODEL 13
REMARK VINA RESULT:      -6.0      2.466      4.484
REMARK  0 active torsions:
REMARK  status: ('A' for Active; 'I' for Inactive)
ROOT
HETATM    1 CL   LIG     1      18.125  36.062  27.222  1.00  0.00    -0.084 Cl
HETATM    2  C   LIG     1      17.852  36.231  25.498  1.00  0.00     0.034 A 
HETATM    3  C   LIG     1      18.120  37.449  24.864  1.00  0.00     0.036 A 
HETATM    4  C   LIG     1      17.903  37.588  23.485  1.00  0.00    -0.024 A 
HETATM    5  C   LIG     1      18.168  38.805  22.836  1.00  0.00     0.012 A 
HETATM    6  C   LIG     1      17.947  38.930  21.462  1.00  0.00     0.001 A 
HETATM    7  C   LIG     1      17.462  37.846  20.725  1.00  0.00     0.001 A 
HETATM    8  C   LIG     1      17.193  36.629  21.357  1.00  0.00     0.012 A 
HETATM    9  C   LIG     1      17.411  36.489  22.737  1.00  0.00    -0.026 A 
HETATM   10  C   LIG     1      17.146  35.273  23.385  1.00  0.00     0.014 A 
HETATM   11  C   LIG     1      17.366  35.146  24.759  1.00  0.00     0.024 A 
ENDROOT
TORSDOF 0
ENDMDL
MODEL 14
REMARK VINA RESULT:      -5.9      2.700      3.817
REMARK  0 active torsions:
REMARK  status: ('A' for Active; 'I' for Inactive)
ROOT
HETATM    1 CL   LIG     1      14.540  34.113  21.489  1.00  0.00    -0.084 Cl
HETATM    2  C   LIG     1      15.780  35.321  21.209  1.00  0.00     0.034 A 
HETATM    3  C   LIG     1      16.004  36.325  22.157  1.00  0.00     0.036 A 
HETATM    4  C   LIG     1      16.996  37.293  21.937  1.00  0.00    -0.024 A 
HETATM    5  C   LIG     1      17.231  38.306  22.880  1.00  0.00     0.012 A 
HETATM    6  C   LIG     1      18.222  39.265  22.648  1.00  0.00     0.001 A 
HETATM    7  C   LIG     1      18.984  39.220  21.478  1.00  0.00     0.001 A 
HETATM    8  C   LIG     1      18.761  38.218  20.529  1.00  0.00     0.012 A 
HETATM    9  C   LIG     1      17.769  37.249  20.750  1.00  0.00    -0.026 A 
HETATM   10  C   LIG     1      17.535  36.237  19.807  1.00  0.00     0.014 A 
HETATM   11  C   LIG     1      16.544  35.277  20.037  1.00  0.00     0.024 A 
ENDROOT
TORSDOF 0
ENDMDL
MODEL 15
REMARK VINA RESULT:      -5.5      1.693      2.250
REMARK  0 active torsions:
REMARK  status: ('A' for Active; 'I' for Inactive)
ROOT
HETATM    1 CL   LIG     1      18.029  39.207  20.135  1.00  0.00    -0.084 Cl
HETATM    2  C   LIG     1      17.957  38.482  21.730  1.00  0.00     0.034 A 
HETATM    3  C   LIG     1      17.523  37.161  21.878  1.00  0.00     0.036 A 
HETATM    4  C   LIG     1      17.465  36.577  23.153  1.00  0.00    -0.024 A 
HETATM    5  C   LIG     1      17.031  35.251  23.315  1.00  0.00     0.012 A 
HETATM    6  C   LIG     1      16.977  34.682  24.591  1.00  0.00     0.001 A 
HETATM    7  C   LIG     1      17.355  35.427  25.711  1.00  0.00     0.001 A 
HETATM    8  C   LIG     1      17.788  36.748  25.564  1.00  0.00     0.012 A 
HETATM    9  C   LIG     1      17.848  37.332  24.289  1.00  0.00    -0.026 A 
HETATM   10  C   LIG     1      18.281  38.657  24.127  1.00  0.00     0.014 A 
HETATM   11  C   LIG     1      18.335  39.227  22.853  1.00  0.00     0.024 A 
ENDROOT
TORSDOF 0
ENDMDL
MODEL 16
REMARK VINA RESULT:      -5.4      9.141     10.734
REMARK  0 active torsions:
REMARK  status: ('A' for Active; 'I' for Inactive)
ROOT
HETATM    1 CL   LIG     1      12.981  30.285  16.783  1.00  0.00    -0.084 Cl
HETATM    2  C   LIG     1      14.183  30.933  15.684  1.00  0.00     0.034 A 
HETATM    3  C   LIG     1      14.935  32.054  16.051  1.00  0.00     0.036 A 
HETATM    4  C   LIG     1      15.899  32.575  15.174  1.00  0.00    -0.024 A 
HETATM    5  C   LIG     1      16.660  33.699  15.531  1.00  0.00     0.012 A 
HETATM    6  C   LIG     1      17.616  34.209  14.648  1.00  0.00     0.001 A 
HETATM    7  C   LIG     1      17.821  33.602  13.405  1.00  0.00     0.001 A 
HETATM    8  C   LIG     1      17.069  32.482  13.036  1.00  0.00     0.012 A 
HETATM    9  C   LIG     1      16.106  31.961  13.914  1.00  0.00    -0.026 A 
HETATM   10  C   LIG     1      15.345  30.837  13.557  1.00  0.00     0.014 A 
HETATM   11  C   LIG     1      14.389  30.327  14.439  1.00  0.00     0.024 A 
ENDROOT
TORSDOF 0
ENDMDL
MODEL 17
REMARK VINA RESULT:      -5.1      3.495      4.312
REMARK  0 active torsions:
REMARK  status: ('A' for Active; 'I' for Inactive)
ROOT
HETATM    1 CL   LIG     1      19.308  39.603  21.764  1.00  0.00    -0.084 Cl
HETATM    2  C   LIG     1      17.940  38.508  21.826  1.00  0.00     0.034 A 
HETATM    3  C   LIG     1      17.989  37.289  21.142  1.00  0.00     0.036 A 
HETATM    4  C   LIG     1      16.896  36.410  21.190  1.00  0.00    -0.024 A 
HETATM    5  C   LIG     1      16.932  35.183  20.507  1.00  0.00     0.012 A 
HETATM    6  C   LIG     1      15.837  34.317  20.563  1.00  0.00     0.001 A 
HETATM    7  C   LIG     1      14.700  34.666  21.297  1.00  0.00     0.001 A 
HETATM    8  C   LIG     1      14.650  35.884  21.981  1.00  0.00     0.012 A 
HETATM    9  C   LIG     1      15.743  36.763  21.934  1.00  0.00    -0.026 A 
HETATM   10  C   LIG     1      15.706  37.989  22.616  1.00  0.00     0.014 A 
HETATM   11  C   LIG     1      16.801  38.856  22.562  1.00  0.00     0.024 A 
ENDROOT
TORSDOF 0
ENDMDL
