MODEL 1
REMARK VINA RESULT:      -8.2      0.000      0.000
REMARK  0 active torsions:
REMARK  status: ('A' for Active; 'I' for Inactive)
ROOT
HETATM    1  C   LIG     1      16.043  35.479  20.561  1.00  0.00     0.048 C 
HETATM    2  C   LIG     1      16.552  36.025  21.862  1.00  0.00    -0.061 A 
HETATM    3  C   LIG     1      16.817  35.150  22.927  1.00  0.00     0.019 A 
HETATM    4  C   LIG     1      17.294  35.645  24.150  1.00  0.00    -0.025 A 
HETATM    5  C   LIG     1      17.560  34.775  25.219  1.00  0.00     0.012 A 
HETATM    6  C   LIG     1      18.035  35.280  26.433  1.00  0.00     0.001 A 
HETATM    7  C   LIG     1      18.246  36.653  26.590  1.00  0.00     0.001 A 
HETATM    8  C   LIG     1      17.983  37.530  25.533  1.00  0.00     0.012 A 
HETATM    9  C   LIG     1      17.507  37.036  24.309  1.00  0.00    -0.026 A 
HETATM   10  C   LIG     1      17.241  37.905  23.241  1.00  0.00     0.013 A 
HETATM   11  C   LIG     1      16.766  37.403  22.027  1.00  0.00     0.007 A 
ENDROOT
TORSDOF 0
ENDMDL
MODEL 2
REMARK VINA RESULT:      -8.0      0.924      2.425
REMARK  0 active torsions:
REMARK  status: ('A' for Active; 'I' for Inactive)
ROOT
HETATM    1  C   LIG     1      17.688  39.329  21.603  1.00  0.00     0.048 C 
HETATM    2  C   LIG     1      17.559  38.132  22.498  1.00  0.00    -0.061 A 
HETATM    3  C   LIG     1      18.011  38.206  23.825  1.00  0.00     0.019 A 
HETATM    4  C   LIG     1      17.898  37.097  24.675  1.00  0.00    -0.025 A 
HETATM    5  C   LIG     1      18.348  37.164  26.004  1.00  0.00     0.012 A 
HETATM    6  C   LIG     1      18.231  36.051  26.842  1.00  0.00     0.001 A 
HETATM    7  C   LIG     1      17.666  34.866  26.362  1.00  0.00     0.001 A 
HETATM    8  C   LIG     1      17.216  34.785  25.042  1.00  0.00     0.012 A 
HETATM    9  C   LIG     1      17.327  35.895  24.190  1.00  0.00    -0.026 A 
HETATM   10  C   LIG     1      16.878  35.827  22.863  1.00  0.00     0.013 A 
HETATM   11  C   LIG     1      16.994  36.938  22.023  1.00  0.00     0.007 A 
ENDROOT
TORSDOF 0
ENDMDL
MODEL 3
REMARK VINA RESULT:      -7.7      2.868      4.352
REMARK  0 active torsions:
REMARK  status: ('A' for Active; 'I' for Inactive)
ROOT
HETATM    1  C   LIG     1      15.291  34.658  21.622  1.00  0.00     0.048 C 
HETATM    2  C   LIG     1      16.200  35.847  21.524  1.00  0.00    -0.061 A 
HETATM    3  C   LIG     1      17.228  35.858  20.568  1.00  0.00     0.019 A 
HETATM    4  C   LIG     1      18.087  36.962  20.463  1.00  0.00    -0.025 A 
HETATM    5  C   LIG     1      19.117  36.980  19.509  1.00  0.00     0.012 A 
HETATM    6  C   LIG     1      19.967  38.086  19.414  1.00  0.00     0.001 A 
HETATM    7  C   LIG     1      19.796  39.179  20.268  1.00  0.00     0.001 A 
HETATM    8  C   LIG     1      18.776  39.174  21.223  1.00  0.00     0.012 A 
HETATM    9  C   LIG     1      17.915  38.071  21.328  1.00  0.00    -0.026 A 
HETATM   10  C   LIG     1      16.886  38.053  22.281  1.00  0.00     0.013 A 
HETATM   11  C   LIG     1      16.036  36.949  22.379  1.00  0.00     0.007 A 
ENDROOT
TORSDOF 0
ENDMDL
MODEL 4
REMARK VINA RESULT:      -7.4      2.334      5.117
REMARK  0 active torsions:
REMARK  status: ('A' for Active; 'I' for Inactive)
ROOT
HETATM    1  C   LIG     1      17.091  38.138  25.102  1.00  0.00     0.048 C 
HETATM    2  C   LIG     1      17.379  37.780  23.674  1.00  0.00    -0.061 A 
HETATM    3  C   LIG     1      18.070  38.688  22.856  1.00  0.00     0.019 A 
HETATM    4  C   LIG     1      18.347  38.369  21.519  1.00  0.00    -0.025 A 
HETATM    5  C   LIG     1      19.037  39.273  20.696  1.00  0.00     0.012 A 
HETATM    6  C   LIG     1      19.307  38.944  19.363  1.00  0.00     0.001 A 
HETATM    7  C   LIG     1      18.891  37.714  18.845  1.00  0.00     0.001 A 
HETATM    8  C   LIG     1      18.202  36.806  19.654  1.00  0.00     0.012 A 
HETATM    9  C   LIG     1      17.925  37.123  20.992  1.00  0.00    -0.026 A 
HETATM   10  C   LIG     1      17.235  36.221  21.814  1.00  0.00     0.013 A 
HETATM   11  C   LIG     1      16.964  36.547  23.145  1.00  0.00     0.007 A 
ENDROOT
TORSDOF 0
ENDMDL
MODEL 5
REMARK VINA RESULT:      -7.2      2.510      3.798
REMARK  0 active torsions:
REMARK  status: ('A' for Active; 'I' for Inactive)
ROOT
HETATM    1  C   LIG     1      19.666  39.043  18.276  1.00  0.00     0.048 C 
HETATM    2  C   LIG     1      18.999  38.635  19.556  1.00  0.00    -0.061 A 
HETATM    3  C   LIG     1      18.537  37.319  19.709  1.00  0.00     0.019 A 
HETATM    4  C   LIG     1      17.911  36.922  20.900  1.00  0.00    -0.025 A 
HETATM    5  C   LIG     1      17.446  35.607  21.060  1.00  0.00     0.012 A 
HETATM    6  C   LIG     1      16.823  35.223  22.252  1.00  0.00     0.001 A 
HETATM    7  C   LIG     1      16.660  36.145  23.290  1.00  0.00     0.001 A 
HETATM    8  C   LIG     1      17.118  37.457  23.143  1.00  0.00     0.012 A 
HETATM    9  C   LIG     1      17.745  37.856  21.952  1.00  0.00    -0.026 A 
HETATM   10  C   LIG     1      18.210  39.170  21.793  1.00  0.00     0.013 A 
HETATM   11  C   LIG     1      18.831  39.556  20.603  1.00  0.00     0.007 A 
ENDROOT
TORSDOF 0
ENDMDL
MODEL 6
REMARK VINA RESULT:      -6.8      0.800      3.961
REMARK  0 active torsions:
REMARK  status: ('A' for Active; 'I' for Inactive)
ROOT
HETATM    1  C   LIG     1      18.255  35.977  27.078  1.00  0.00     0.048 C 
HETATM    2  C   LIG     1      17.892  36.333  25.667  1.00  0.00    -0.061 A 
HETATM    3  C   LIG     1      17.505  35.322  24.773  1.00  0.00     0.019 A 
HETATM    4  C   LIG     1      17.162  35.639  23.450  1.00  0.00    -0.025 A 
HETATM    5  C   LIG     1      16.774  34.632  22.552  1.00  0.00     0.012 A 
HETATM    6  C   LIG     1      16.435  34.959  21.235  1.00  0.00     0.001 A 
HETATM    7  C   LIG     1      16.482  36.289  20.806  1.00  0.00     0.001 A 
HETATM    8  C   LIG     1      16.868  37.300  21.691  1.00  0.00     0.012 A 
HETATM    9  C   LIG     1      17.210  36.986  23.015  1.00  0.00    -0.026 A 
HETATM   10  C   LIG     1      17.598  37.991  23.912  1.00  0.00     0.013 A 
HETATM   11  C   LIG     1      17.937  37.667  25.228  1.00  0.00     0.007 A 
ENDROOT
TORSDOF 0
ENDMDL
MODEL 7
REMARK VINA RESULT:      -6.5      0.967      4.406
REMARK  0 active torsions:
REMARK  status: ('A' for Active; 'I' for Inactive)
ROOT
HETATM    1  C   LIG     1      18.254  36.102  27.241  1.00  0.00     0.048 C 
HETATM    2  C   LIG     1      17.926  36.167  25.779  1.00  0.00    -0.061 A 
HETATM    3  C   LIG     1      18.104  37.371  25.080  1.00  0.00     0.019 A 
HETATM    4  C   LIG     1      17.802  37.449  23.712  1.00  0.00    -0.025 A 
HETATM    5  C   LIG     1      17.978  38.650  23.008  1.00  0.00     0.012 A 
HETATM    6  C   LIG     1      17.673  38.715  21.644  1.00  0.00     0.001 A 
HETATM    7  C   LIG     1      17.191  37.586  20.977  1.00  0.00     0.001 A 
HETATM    8  C   LIG     1      17.010  36.385  21.667  1.00  0.00     0.012 A 
HETATM    9  C   LIG     1      17.313  36.305  23.035  1.00  0.00    -0.026 A 
HETATM   10  C   LIG     1      17.136  35.105  23.739  1.00  0.00     0.013 A 
HETATM   11  C   LIG     1      17.440  35.037  25.101  1.00  0.00     0.007 A 
ENDROOT
TORSDOF 0
ENDMDL
MODEL 8
REMARK VINA RESULT:      -6.3      7.595     11.044
REMARK  0 active torsions:
REMARK  status: ('A' for Active; 'I' for Inactive)
ROOT
HETATM    1  C   LIG     1      15.107  34.149  17.299  1.00  0.00     0.048 C 
HETATM    2  C   LIG     1      14.621  32.890  16.645  1.00  0.00    -0.061 A 
HETATM    3  C   LIG     1      15.411  32.266  15.667  1.00  0.00     0.019 A 
HETATM    4  C   LIG     1      14.970  31.088  15.046  1.00  0.00    -0.025 A 
HETATM    5  C   LIG     1      15.756  30.459  14.066  1.00  0.00     0.012 A 
HETATM    6  C   LIG     1      15.306  29.285  13.454  1.00  0.00     0.001 A 
HETATM    7  C   LIG     1      14.073  28.732  13.812  1.00  0.00     0.001 A 
HETATM    8  C   LIG     1      13.282  29.349  14.785  1.00  0.00     0.012 A 
HETATM    9  C   LIG     1      13.721  30.527  15.408  1.00  0.00    -0.026 A 
HETATM   10  C   LIG     1      12.937  31.156  16.387  1.00  0.00     0.013 A 
HETATM   11  C   LIG     1      13.384  32.329  16.999  1.00  0.00     0.007 A 
ENDROOT
TORSDOF 0
ENDMDL
MODEL 9
REMARK VINA RESULT:      -6.2      0.958      2.369
REMARK  0 active torsions:
REMARK  status: ('A' for Active; 'I' for Inactive)
ROOT
HETATM    1  C   LIG     1      16.078  35.510  19.867  1.00  0.00     0.048 C 
HETATM    2  C   LIG     1      16.464  35.702  21.303  1.00  0.00    -0.061 A 
HETATM    3  C   LIG     1      16.609  37.000  21.816  1.00  0.00     0.019 A 
HETATM    4  C   LIG     1      16.970  37.197  23.158  1.00  0.00    -0.025 A 
HETATM    5  C   LIG     1      17.116  38.493  23.677  1.00  0.00     0.012 A 
HETATM    6  C   LIG     1      17.476  38.676  25.016  1.00  0.00     0.001 A 
HETATM    7  C   LIG     1      17.694  37.571  25.843  1.00  0.00     0.001 A 
HETATM    8  C   LIG     1      17.552  36.275  25.338  1.00  0.00     0.012 A 
HETATM    9  C   LIG     1      17.190  36.077  23.997  1.00  0.00    -0.026 A 
HETATM   10  C   LIG     1      17.045  34.782  23.478  1.00  0.00     0.013 A 
HETATM   11  C   LIG     1      16.685  34.597  22.141  1.00  0.00     0.007 A 
ENDROOT
TORSDOF 0
ENDMDL
MODEL 10
REMARK VINA RESULT:      -6.1      8.716     10.548
REMARK  0 active torsions:
REMARK  status: ('A' for Active; 'I' for Inactive)
ROOT
HETATM    1  C   LIG     1      18.246  33.633  13.727  1.00  0.00     0.048 C 
HETATM    2  C   LIG     1      17.066  33.047  14.444  1.00  0.00    -0.061 A 
HETATM    3  C   LIG     1      16.414  31.926  13.908  1.00  0.00     0.019 A 
HETATM    4  C   LIG     1      15.309  31.366  14.567  1.00  0.00    -0.025 A 
HETATM    5  C   LIG     1      14.652  30.245  14.036  1.00  0.00     0.012 A 
HETATM    6  C   LIG     1      13.551  29.696  14.701  1.00  0.00     0.001 A 
HETATM    7  C   LIG     1      13.098  30.261  15.896  1.00  0.00     0.001 A 
HETATM    8  C   LIG     1      13.742  31.379  16.434  1.00  0.00     0.012 A 
HETATM    9  C   LIG     1      14.849  31.939  15.778  1.00  0.00    -0.026 A 
HETATM   10  C   LIG     1      15.504  33.060  16.308  1.00  0.00     0.013 A 
HETATM   11  C   LIG     1      16.604  33.610  15.645  1.00  0.00     0.007 A 
ENDROOT
TORSDOF 0
ENDMDL
MODEL 11
REMARK VINA RESULT:      -6.0      2.653      3.904
REMARK  0 active torsions:
REMARK  status: ('A' for Active; 'I' for Inactive)
ROOT
HETATM    1  C   LIG     1      14.807  34.357  21.488  1.00  0.00     0.048 C 
HETATM    2  C   LIG     1      15.874  35.364  21.179  1.00  0.00    -0.061 A 
HETATM    3  C   LIG     1      16.174  36.367  22.115  1.00  0.00     0.019 A 
HETATM    4  C   LIG     1      17.169  37.317  21.842  1.00  0.00    -0.025 A 
HETATM    5  C   LIG     1      17.473  38.323  22.773  1.00  0.00     0.012 A 
HETATM    6  C   LIG     1      18.468  39.265  22.489  1.00  0.00     0.001 A 
HETATM    7  C   LIG     1      19.163  39.210  21.278  1.00  0.00     0.001 A 
HETATM    8  C   LIG     1      18.869  38.215  20.342  1.00  0.00     0.012 A 
HETATM    9  C   LIG     1      17.874  37.263  20.614  1.00  0.00    -0.026 A 
HETATM   10  C   LIG     1      17.570  36.259  19.684  1.00  0.00     0.013 A 
HETATM   11  C   LIG     1      16.577  35.317  19.964  1.00  0.00     0.007 A 
ENDROOT
TORSDOF 0
ENDMDL
MODEL 12
REMARK VINA RESULT:      -6.0      8.930     10.790
REMARK  0 active torsions:
REMARK  status: ('A' for Active; 'I' for Inactive)
ROOT
HETATM    1  C   LIG     1      13.164  28.878  14.205  1.00  0.00     0.048 C 
HETATM    2  C   LIG     1      13.990  30.055  14.633  1.00  0.00    -0.061 A 
HETATM    3  C   LIG     1      14.961  30.574  13.763  1.00  0.00     0.019 A 
HETATM    4  C   LIG     1      15.741  31.675  14.147  1.00  0.00    -0.025 A 
HETATM    5  C   LIG     1      16.714  32.199  13.282  1.00  0.00     0.012 A 
HETATM    6  C   LIG     1      17.487  33.297  13.677  1.00  0.00     0.001 A 
HETATM    7  C   LIG     1      17.295  33.875  14.934  1.00  0.00     0.001 A 
HETATM    8  C   LIG     1      16.330  33.362  15.806  1.00  0.00     0.012 A 
HETATM    9  C   LIG     1      15.548  32.262  15.422  1.00  0.00    -0.026 A 
HETATM   10  C   LIG     1      14.576  31.737  16.287  1.00  0.00     0.013 A 
HETATM   11  C   LIG     1      13.804  30.641  15.895  1.00  0.00     0.007 A 
ENDROOT
TORSDOF 0
ENDMDL
MODEL 13
REMARK VINA RESULT:      -6.0      8.279     10.637
REMARK  0 active torsions:
REMARK  status: ('A' for Active; 'I' for Inactive)
ROOT
HETATM    1  C   LIG     1      15.304  28.312  13.109  1.00  0.00     0.048 C 
HETATM    2  C   LIG     1      14.824  29.366  14.062  1.00  0.00    -0.061 A 
HETATM    3  C   LIG     1      15.659  30.449  14.378  1.00  0.00     0.019 A 
HETATM    4  C   LIG     1      15.225  31.443  15.267  1.00  0.00    -0.025 A 
HETATM    5  C   LIG     1      16.056  32.528  15.587  1.00  0.00     0.012 A 
HETATM    6  C   LIG     1      15.612  33.514  16.476  1.00  0.00     0.001 A 
HETATM    7  C   LIG     1      14.341  33.422  17.050  1.00  0.00     0.001 A 
HETATM    8  C   LIG     1      13.505  32.345  16.740  1.00  0.00     0.012 A 
HETATM    9  C   LIG     1      13.937  31.351  15.850  1.00  0.00    -0.026 A 
HETATM   10  C   LIG     1      13.108  30.266  15.530  1.00  0.00     0.013 A 
HETATM   11  C   LIG     1      13.549  29.280  14.644  1.00  0.00     0.007 A 
ENDROOT
TORSDOF 0
ENDMDL
MODEL 14
REMARK VINA RESULT:      -5.8      1.892      4.647
REMARK  0 active torsions:
REMARK  status: ('A' for Active; 'I' for Inactive)
ROOT
HETATM    1  C   LIG     1      17.276  38.021  25.408  1.00  0.00     0.048 C 
HETATM    2  C   LIG     1      17.668  38.061  23.961  1.00  0.00    -0.061 A 
HETATM    3  C   LIG     1      17.219  37.053  23.093  1.00  0.00     0.019 A 
HETATM    4  C   LIG     1      17.576  37.075  21.736  1.00  0.00    -0.025 A 
HETATM    5  C   LIG     1      17.130  36.070  20.863  1.00  0.00     0.012 A 
HETATM    6  C   LIG     1      17.493  36.103  19.512  1.00  0.00     0.001 A 
HETATM    7  C   LIG     1      18.301  37.134  19.026  1.00  0.00     0.001 A 
HETATM    8  C   LIG     1      18.752  38.140  19.886  1.00  0.00     0.012 A 
HETATM    9  C   LIG     1      18.395  38.120  21.242  1.00  0.00    -0.026 A 
HETATM   10  C   LIG     1      18.840  39.123  22.115  1.00  0.00     0.013 A 
HETATM   11  C   LIG     1      18.480  39.093  23.465  1.00  0.00     0.007 A 
ENDROOT
TORSDOF 0
ENDMDL
MODEL 15
REMARK VINA RESULT:      -5.8     16.599     17.529
REMARK  0 active torsions:
REMARK  status: ('A' for Active; 'I' for Inactive)
ROOT
HETATM    1  C   LIG     1       4.614  39.459  36.416  1.00  0.00     0.048 C 
HETATM    2  C   LIG     1       4.322  40.306  35.214  1.00  0.00    -0.061 A 
HETATM    3  C   LIG     1       3.915  39.696  34.017  1.00  0.00     0.019 A 
HETATM    4  C   LIG     1       3.638  40.473  32.883  1.00  0.00    -0.025 A 
HETATM    5  C   LIG     1       3.231  39.869  31.683  1.00  0.00     0.012 A 
HETATM    6  C   LIG     1       2.957  40.655  30.558  1.00  0.00     0.001 A 
HETATM    7  C   LIG     1       3.089  42.045  30.623  1.00  0.00     0.001 A 
HETATM    8  C   LIG     1       3.494  42.658  31.812  1.00  0.00     0.012 A 
HETATM    9  C   LIG     1       3.771  41.882  32.947  1.00  0.00    -0.026 A 
HETATM   10  C   LIG     1       4.178  42.486  34.146  1.00  0.00     0.013 A 
HETATM   11  C   LIG     1       4.452  41.703  35.270  1.00  0.00     0.007 A 
ENDROOT
TORSDOF 0
ENDMDL
MODEL 16
REMARK VINA RESULT:      -5.8     16.985     17.883
REMARK  0 active torsions:
REMARK  status: ('A' for Active; 'I' for Inactive)
ROOT
HETATM    1  C   LIG     1       4.788  39.367  36.478  1.00  0.00     0.048 C 
HETATM    2  C   LIG     1       4.423  40.153  35.254  1.00  0.00    -0.061 A 
HETATM    3  C   LIG     1       4.513  41.553  35.275  1.00  0.00     0.019 A 
HETATM    4  C   LIG     1       4.175  42.303  34.138  1.00  0.00    -0.025 A 
HETATM    5  C   LIG     1       4.263  43.704  34.153  1.00  0.00     0.012 A 
HETATM    6  C   LIG     1       3.923  44.440  33.013  1.00  0.00     0.001 A 
HETATM    7  C   LIG     1       3.492  43.786  31.856  1.00  0.00     0.001 A 
HETATM    8  C   LIG     1       3.399  42.392  31.829  1.00  0.00     0.012 A 
HETATM    9  C   LIG     1       3.738  41.641  32.965  1.00  0.00    -0.026 A 
HETATM   10  C   LIG     1       3.650  40.241  32.950  1.00  0.00     0.013 A 
HETATM   11  C   LIG     1       3.989  39.503  34.087  1.00  0.00     0.007 A 
ENDROOT
TORSDOF 0
ENDMDL
MODEL 17
REMARK VINA RESULT:      -5.8      9.045     10.743
REMARK  0 active torsions:
REMARK  status: ('A' for Active; 'I' for Inactive)
ROOT
HETATM    1  C   LIG     1      13.128  30.359  16.676  1.00  0.00     0.048 C 
HETATM    2  C   LIG     1      14.151  30.899  15.721  1.00  0.00    -0.061 A 
HETATM    3  C   LIG     1      14.907  32.026  16.078  1.00  0.00     0.019 A 
HETATM    4  C   LIG     1      15.868  32.544  15.197  1.00  0.00    -0.025 A 
HETATM    5  C   LIG     1      16.628  33.671  15.549  1.00  0.00     0.012 A 
HETATM    6  C   LIG     1      17.582  34.178  14.661  1.00  0.00     0.001 A 
HETATM    7  C   LIG     1      17.783  33.568  13.420  1.00  0.00     0.001 A 
HETATM    8  C   LIG     1      17.032  32.446  13.057  1.00  0.00     0.012 A 
HETATM    9  C   LIG     1      16.072  31.926  13.939  1.00  0.00    -0.026 A 
HETATM   10  C   LIG     1      15.312  30.801  13.587  1.00  0.00     0.013 A 
HETATM   11  C   LIG     1      14.358  30.292  14.472  1.00  0.00     0.007 A 
ENDROOT
TORSDOF 0
ENDMDL
MODEL 18
REMARK VINA RESULT:      -5.7     12.164     13.302
REMARK  0 active torsions:
REMARK  status: ('A' for Active; 'I' for Inactive)
ROOT
HETATM    1  C   LIG     1      19.070  32.965  11.509  1.00  0.00     0.048 C 
HETATM    2  C   LIG     1      20.180  33.961  11.354  1.00  0.00    -0.061 A 
HETATM    3  C   LIG     1      21.045  34.211  12.431  1.00  0.00     0.019 A 
HETATM    4  C   LIG     1      22.088  35.140  12.301  1.00  0.00    -0.025 A 
HETATM    5  C   LIG     1      22.956  35.395  13.375  1.00  0.00     0.012 A 
HETATM    6  C   LIG     1      23.992  36.324  13.235  1.00  0.00     0.001 A 
HETATM    7  C   LIG     1      24.169  37.003  12.026  1.00  0.00     0.001 A 
HETATM    8  C   LIG     1      23.311  36.758  10.950  1.00  0.00     0.012 A 
HETATM    9  C   LIG     1      22.268  35.829  11.077  1.00  0.00    -0.026 A 
HETATM   10  C   LIG     1      21.400  35.574  10.005  1.00  0.00     0.013 A 
HETATM   11  C   LIG     1      20.364  34.648  10.143  1.00  0.00     0.007 A 
ENDROOT
TORSDOF 0
ENDMDL
MODEL 19
REMARK VINA RESULT:      -5.7      3.097      4.279
REMARK  0 active torsions:
REMARK  status: ('A' for Active; 'I' for Inactive)
ROOT
HETATM    1  C   LIG     1      19.000  39.596  21.764  1.00  0.00     0.048 C 
HETATM    2  C   LIG     1      17.868  38.616  21.835  1.00  0.00    -0.061 A 
HETATM    3  C   LIG     1      17.955  37.402  21.136  1.00  0.00     0.019 A 
HETATM    4  C   LIG     1      16.904  36.474  21.193  1.00  0.00    -0.025 A 
HETATM    5  C   LIG     1      16.985  35.258  20.496  1.00  0.00     0.012 A 
HETATM    6  C   LIG     1      15.931  34.341  20.559  1.00  0.00     0.001 A 
HETATM    7  C   LIG     1      14.792  34.630  21.316  1.00  0.00     0.001 A 
HETATM    8  C   LIG     1      14.698  35.838  22.013  1.00  0.00     0.012 A 
HETATM    9  C   LIG     1      15.749  36.767  21.958  1.00  0.00    -0.026 A 
HETATM   10  C   LIG     1      15.668  37.982  22.654  1.00  0.00     0.013 A 
HETATM   11  C   LIG     1      16.719  38.899  22.592  1.00  0.00     0.007 A 
ENDROOT
TORSDOF 0
ENDMDL
MODEL 20
REMARK VINA RESULT:      -5.5     16.954     17.792
REMARK  0 active torsions:
REMARK  status: ('A' for Active; 'I' for Inactive)
ROOT
HETATM    1  C   LIG     1       4.047  39.310  34.614  1.00  0.00     0.048 C 
HETATM    2  C   LIG     1       4.029  40.745  34.175  1.00  0.00    -0.061 A 
HETATM    3  C   LIG     1       3.735  41.059  32.839  1.00  0.00     0.019 A 
HETATM    4  C   LIG     1       3.714  42.395  32.413  1.00  0.00    -0.025 A 
HETATM    5  C   LIG     1       3.421  42.715  31.078  1.00  0.00     0.012 A 
HETATM    6  C   LIG     1       3.403  44.052  30.664  1.00  0.00     0.001 A 
HETATM    7  C   LIG     1       3.679  45.074  31.577  1.00  0.00     0.001 A 
HETATM    8  C   LIG     1       3.973  44.767  32.908  1.00  0.00     0.012 A 
HETATM    9  C   LIG     1       3.993  43.431  33.337  1.00  0.00    -0.026 A 
HETATM   10  C   LIG     1       4.287  43.111  34.670  1.00  0.00     0.013 A 
HETATM   11  C   LIG     1       4.305  41.777  35.086  1.00  0.00     0.007 A 
ENDROOT
TORSDOF 0
ENDMDL
