REMARK  3 active torsions:
REMARK  status: ('A' for Active; 'I' for Inactive)
REMARK    1  A    between atoms: C_2  and  N_3 
REMARK    2  A    between atoms: N_3  and  C_10 
REMARK    3  A    between atoms: N_3  and  C_4 
ROOT
HETATM    1  C   LIG     1       0.722  -0.231   0.087  1.00  0.00     0.030 A 
HETATM    2  C   LIG     1       1.559  -0.161   1.217  1.00  0.00     0.029 A 
HETATM    3  C   LIG     1       2.918   0.135   1.076  1.00  0.00     0.002 A 
HETATM    4  C   LIG     1       3.459   0.363  -0.190  1.00  0.00     0.000 A 
HETATM    5  C   LIG     1       2.641   0.294  -1.320  1.00  0.00     0.002 A 
HETATM    6  C   LIG     1       1.281  -0.002  -1.185  1.00  0.00     0.029 A 
ENDROOT
BRANCH   1   7
HETATM    7  N   LIG     1      -0.688  -0.527   0.227  1.00  0.00    -0.382 N 
BRANCH   7   8
HETATM    8  C   LIG     1      -1.484   0.085   1.305  1.00  0.00     0.118 C 
HETATM    9  C   LIG     1      -1.521   1.603   1.157  1.00  0.00     0.026 C 
ENDBRANCH   7   8
BRANCH   7  10
HETATM   10  C   LIG     1      -1.349  -1.449  -0.710  1.00  0.00     0.118 C 
HETATM   11  C   LIG     1      -2.266  -0.692  -1.668  1.00  0.00     0.026 C 
ENDBRANCH   7  10
ENDBRANCH   1   7
TORSDOF 3
