REMARK  0 active torsions:
REMARK  status: ('A' for Active; 'I' for Inactive)
ROOT
HETATM    1  O   LIG     1       3.605   1.211   0.088  1.00  0.00    -0.260 OA
HETATM    2  C   LIG     1       2.486   0.636   0.080  1.00  0.00     0.288 A 
HETATM    3  C   LIG     1       2.415  -0.755   0.208  1.00  0.00     0.083 A 
HETATM    4  C   LIG     1       1.164  -1.373   0.197  1.00  0.00     0.020 A 
HETATM    5  C   LIG     1       0.014  -0.590   0.057  1.00  0.00    -0.002 A 
HETATM    6  C   LIG     1      -1.267  -1.161   0.040  1.00  0.00     0.014 A 
HETATM    7  C   LIG     1      -2.392  -0.343  -0.102  1.00  0.00     0.001 A 
HETATM    8  C   LIG     1      -2.244   1.042  -0.226  1.00  0.00     0.003 A 
HETATM    9  C   LIG     1      -0.970   1.619  -0.209  1.00  0.00     0.038 A 
HETATM   10  C   LIG     1       0.163   0.810  -0.068  1.00  0.00     0.089 A 
HETATM   11  O   LIG     1       1.375   1.358  -0.052  1.00  0.00    -0.275 OA
ENDROOT
TORSDOF 0
