MODEL 1
REMARK VINA RESULT:      -7.8      0.000      0.000
REMARK  0 active torsions:
REMARK  status: ('A' for Active; 'I' for Inactive)
ROOT
HETATM    1  O   LIG     1      16.034  39.314  22.444  1.00  0.00    -0.260 OA
HETATM    2  C   LIG     1      16.394  38.248  23.008  1.00  0.00     0.288 A 
HETATM    3  C   LIG     1      16.251  37.025  22.344  1.00  0.00     0.083 A 
HETATM    4  C   LIG     1      16.658  35.855  22.987  1.00  0.00     0.020 A 
HETATM    5  C   LIG     1      17.195  35.932  24.276  1.00  0.00    -0.002 A 
HETATM    6  C   LIG     1      17.618  34.786  24.966  1.00  0.00     0.014 A 
HETATM    7  C   LIG     1      18.150  34.906  26.253  1.00  0.00     0.001 A 
HETATM    8  C   LIG     1      18.262  36.164  26.855  1.00  0.00     0.003 A 
HETATM    9  C   LIG     1      17.842  37.311  26.173  1.00  0.00     0.038 A 
HETATM   10  C   LIG     1      17.308  37.203  24.884  1.00  0.00     0.089 A 
HETATM   11  O   LIG     1      16.909  38.293  24.235  1.00  0.00    -0.275 OA
ENDROOT
TORSDOF 0
ENDMDL
MODEL 2
REMARK VINA RESULT:      -7.6      2.770      4.524
REMARK  0 active torsions:
REMARK  status: ('A' for Active; 'I' for Inactive)
ROOT
HETATM    1  O   LIG     1      15.842  37.974  24.156  1.00  0.00    -0.260 OA
HETATM    2  C   LIG     1      16.507  37.701  23.123  1.00  0.00     0.288 A 
HETATM    3  C   LIG     1      16.405  36.433  22.542  1.00  0.00     0.083 A 
HETATM    4  C   LIG     1      17.150  36.151  21.396  1.00  0.00     0.020 A 
HETATM    5  C   LIG     1      17.980  37.140  20.858  1.00  0.00    -0.002 A 
HETATM    6  C   LIG     1      18.750  36.909  19.709  1.00  0.00     0.014 A 
HETATM    7  C   LIG     1      19.568  37.923  19.203  1.00  0.00     0.001 A 
HETATM    8  C   LIG     1      19.620  39.168  19.838  1.00  0.00     0.003 A 
HETATM    9  C   LIG     1      18.854  39.407  20.984  1.00  0.00     0.038 A 
HETATM   10  C   LIG     1      18.033  38.398  21.500  1.00  0.00     0.089 A 
HETATM   11  O   LIG     1      17.305  38.624  22.590  1.00  0.00    -0.275 OA
ENDROOT
TORSDOF 0
ENDMDL
MODEL 3
REMARK VINA RESULT:      -7.4      1.539      2.284
REMARK  0 active torsions:
REMARK  status: ('A' for Active; 'I' for Inactive)
ROOT
HETATM    1  O   LIG     1      15.869  35.914  21.061  1.00  0.00    -0.260 OA
HETATM    2  C   LIG     1      16.362  36.302  22.152  1.00  0.00     0.288 A 
HETATM    3  C   LIG     1      16.552  37.668  22.386  1.00  0.00     0.083 A 
HETATM    4  C   LIG     1      17.100  38.077  23.602  1.00  0.00     0.020 A 
HETATM    5  C   LIG     1      17.447  37.114  24.555  1.00  0.00    -0.002 A 
HETATM    6  C   LIG     1      18.001  37.472  25.794  1.00  0.00     0.014 A 
HETATM    7  C   LIG     1      18.334  36.479  26.720  1.00  0.00     0.001 A 
HETATM    8  C   LIG     1      18.116  35.132  26.416  1.00  0.00     0.003 A 
HETATM    9  C   LIG     1      17.563  34.767  25.184  1.00  0.00     0.038 A 
HETATM   10  C   LIG     1      17.226  35.752  24.249  1.00  0.00     0.089 A 
HETATM   11  O   LIG     1      16.701  35.407  23.077  1.00  0.00    -0.275 OA
ENDROOT
TORSDOF 0
ENDMDL
MODEL 4
REMARK VINA RESULT:      -7.2      3.524      5.169
REMARK  0 active torsions:
REMARK  status: ('A' for Active; 'I' for Inactive)
ROOT
HETATM    1  O   LIG     1      15.875  34.235  20.891  1.00  0.00    -0.260 OA
HETATM    2  C   LIG     1      16.457  35.339  21.046  1.00  0.00     0.288 A 
HETATM    3  C   LIG     1      16.089  36.180  22.102  1.00  0.00     0.083 A 
HETATM    4  C   LIG     1      16.747  37.401  22.256  1.00  0.00     0.020 A 
HETATM    5  C   LIG     1      17.755  37.755  21.354  1.00  0.00    -0.002 A 
HETATM    6  C   LIG     1      18.447  38.970  21.465  1.00  0.00     0.014 A 
HETATM    7  C   LIG     1      19.448  39.287  20.543  1.00  0.00     0.001 A 
HETATM    8  C   LIG     1      19.763  38.397  19.511  1.00  0.00     0.003 A 
HETATM    9  C   LIG     1      19.078  37.183  19.395  1.00  0.00     0.038 A 
HETATM   10  C   LIG     1      18.073  36.855  20.312  1.00  0.00     0.089 A 
HETATM   11  O   LIG     1      17.421  35.701  20.201  1.00  0.00    -0.275 OA
ENDROOT
TORSDOF 0
ENDMDL
MODEL 5
REMARK VINA RESULT:      -6.9      3.011      4.872
REMARK  0 active torsions:
REMARK  status: ('A' for Active; 'I' for Inactive)
ROOT
HETATM    1  O   LIG     1      15.470  37.761  23.784  1.00  0.00    -0.260 OA
HETATM    2  C   LIG     1      16.407  38.064  23.000  1.00  0.00     0.288 A 
HETATM    3  C   LIG     1      17.040  39.306  23.117  1.00  0.00     0.083 A 
HETATM    4  C   LIG     1      18.077  39.622  22.238  1.00  0.00     0.020 A 
HETATM    5  C   LIG     1      18.456  38.694  21.264  1.00  0.00    -0.002 A 
HETATM    6  C   LIG     1      19.492  38.962  20.356  1.00  0.00     0.014 A 
HETATM    7  C   LIG     1      19.841  38.007  19.396  1.00  0.00     0.001 A 
HETATM    8  C   LIG     1      19.162  36.786  19.339  1.00  0.00     0.003 A 
HETATM    9  C   LIG     1      18.128  36.511  20.241  1.00  0.00     0.038 A 
HETATM   10  C   LIG     1      17.770  37.459  21.205  1.00  0.00     0.089 A 
HETATM   11  O   LIG     1      16.788  37.199  22.063  1.00  0.00    -0.275 OA
ENDROOT
TORSDOF 0
ENDMDL
MODEL 6
REMARK VINA RESULT:      -6.7      2.981      4.375
REMARK  0 active torsions:
REMARK  status: ('A' for Active; 'I' for Inactive)
ROOT
HETATM    1  O   LIG     1      19.656  39.232  18.669  1.00  0.00    -0.260 OA
HETATM    2  C   LIG     1      19.057  38.825  19.698  1.00  0.00     0.288 A 
HETATM    3  C   LIG     1      18.865  39.687  20.782  1.00  0.00     0.083 A 
HETATM    4  C   LIG     1      18.197  39.215  21.913  1.00  0.00     0.020 A 
HETATM    5  C   LIG     1      17.740  37.894  21.937  1.00  0.00    -0.002 A 
HETATM    6  C   LIG     1      17.063  37.370  23.049  1.00  0.00     0.014 A 
HETATM    7  C   LIG     1      16.622  36.044  23.033  1.00  0.00     0.001 A 
HETATM    8  C   LIG     1      16.851  35.239  21.913  1.00  0.00     0.003 A 
HETATM    9  C   LIG     1      17.524  35.754  20.800  1.00  0.00     0.038 A 
HETATM   10  C   LIG     1      17.971  37.080  20.805  1.00  0.00     0.089 A 
HETATM   11  O   LIG     1      18.611  37.571  19.747  1.00  0.00    -0.275 OA
ENDROOT
TORSDOF 0
ENDMDL
MODEL 7
REMARK VINA RESULT:      -6.7      1.954      4.310
REMARK  0 active torsions:
REMARK  status: ('A' for Active; 'I' for Inactive)
ROOT
HETATM    1  O   LIG     1      17.344  34.323  26.604  1.00  0.00    -0.260 OA
HETATM    2  C   LIG     1      17.451  35.298  25.816  1.00  0.00     0.288 A 
HETATM    3  C   LIG     1      17.851  36.548  26.300  1.00  0.00     0.083 A 
HETATM    4  C   LIG     1      17.964  37.615  25.409  1.00  0.00     0.020 A 
HETATM    5  C   LIG     1      17.673  37.412  24.056  1.00  0.00    -0.002 A 
HETATM    6  C   LIG     1      17.771  38.452  23.119  1.00  0.00     0.014 A 
HETATM    7  C   LIG     1      17.471  38.208  21.776  1.00  0.00     0.001 A 
HETATM    8  C   LIG     1      17.076  36.931  21.363  1.00  0.00     0.003 A 
HETATM    9  C   LIG     1      16.978  35.889  22.291  1.00  0.00     0.038 A 
HETATM   10  C   LIG     1      17.274  36.122  23.639  1.00  0.00     0.089 A 
HETATM   11  O   LIG     1      17.181  35.132  24.522  1.00  0.00    -0.275 OA
ENDROOT
TORSDOF 0
ENDMDL
MODEL 8
REMARK VINA RESULT:      -6.4      1.149      3.399
REMARK  0 active torsions:
REMARK  status: ('A' for Active; 'I' for Inactive)
ROOT
HETATM    1  O   LIG     1      17.198  39.233  26.161  1.00  0.00    -0.260 OA
HETATM    2  C   LIG     1      17.183  38.188  25.460  1.00  0.00     0.288 A 
HETATM    3  C   LIG     1      17.733  37.004  25.961  1.00  0.00     0.083 A 
HETATM    4  C   LIG     1      17.706  35.856  25.169  1.00  0.00     0.020 A 
HETATM    5  C   LIG     1      17.132  35.916  23.895  1.00  0.00    -0.002 A 
HETATM    6  C   LIG     1      17.079  34.792  23.058  1.00  0.00     0.014 A 
HETATM    7  C   LIG     1      16.497  34.894  21.791  1.00  0.00     0.001 A 
HETATM    8  C   LIG     1      15.967  36.112  21.356  1.00  0.00     0.003 A 
HETATM    9  C   LIG     1      16.015  37.238  22.185  1.00  0.00     0.038 A 
HETATM   10  C   LIG     1      16.596  37.148  23.455  1.00  0.00     0.089 A 
HETATM   11  O   LIG     1      16.643  38.218  24.243  1.00  0.00    -0.275 OA
ENDROOT
TORSDOF 0
ENDMDL
MODEL 9
REMARK VINA RESULT:      -6.4      1.979      2.818
REMARK  0 active torsions:
REMARK  status: ('A' for Active; 'I' for Inactive)
ROOT
HETATM    1  O   LIG     1      16.851  35.785  19.604  1.00  0.00    -0.260 OA
HETATM    2  C   LIG     1      16.943  35.894  20.854  1.00  0.00     0.288 A 
HETATM    3  C   LIG     1      16.854  34.755  21.662  1.00  0.00     0.083 A 
HETATM    4  C   LIG     1      16.959  34.897  23.046  1.00  0.00     0.020 A 
HETATM    5  C   LIG     1      17.150  36.171  23.592  1.00  0.00    -0.002 A 
HETATM    6  C   LIG     1      17.263  36.368  24.976  1.00  0.00     0.014 A 
HETATM    7  C   LIG     1      17.453  37.658  25.482  1.00  0.00     0.001 A 
HETATM    8  C   LIG     1      17.532  38.750  24.612  1.00  0.00     0.003 A 
HETATM    9  C   LIG     1      17.422  38.561  23.231  1.00  0.00     0.038 A 
HETATM   10  C   LIG     1      17.231  37.275  22.713  1.00  0.00     0.089 A 
HETATM   11  O   LIG     1      17.125  37.095  21.400  1.00  0.00    -0.275 OA
ENDROOT
TORSDOF 0
ENDMDL
MODEL 10
REMARK VINA RESULT:      -6.3      8.699     10.510
REMARK  0 active torsions:
REMARK  status: ('A' for Active; 'I' for Inactive)
ROOT
HETATM    1  O   LIG     1      15.456  33.534  18.913  1.00  0.00    -0.260 OA
HETATM    2  C   LIG     1      15.187  32.799  17.928  1.00  0.00     0.288 A 
HETATM    3  C   LIG     1      14.191  31.823  18.036  1.00  0.00     0.083 A 
HETATM    4  C   LIG     1      13.909  31.019  16.931  1.00  0.00     0.020 A 
HETATM    5  C   LIG     1      14.626  31.206  15.746  1.00  0.00    -0.002 A 
HETATM    6  C   LIG     1      14.382  30.424  14.607  1.00  0.00     0.014 A 
HETATM    7  C   LIG     1      15.121  30.643  13.441  1.00  0.00     0.001 A 
HETATM    8  C   LIG     1      16.104  31.638  13.407  1.00  0.00     0.003 A 
HETATM    9  C   LIG     1      16.353  32.421  14.538  1.00  0.00     0.038 A 
HETATM   10  C   LIG     1      15.619  32.211  15.711  1.00  0.00     0.089 A 
HETATM   11  O   LIG     1      15.856  32.956  16.787  1.00  0.00    -0.275 OA
ENDROOT
TORSDOF 0
ENDMDL
MODEL 11
REMARK VINA RESULT:      -6.3      9.120     10.903
REMARK  0 active torsions:
REMARK  status: ('A' for Active; 'I' for Inactive)
ROOT
HETATM    1  O   LIG     1      16.341  34.826  16.380  1.00  0.00    -0.260 OA
HETATM    2  C   LIG     1      15.704  33.756  16.202  1.00  0.00     0.288 A 
HETATM    3  C   LIG     1      14.709  33.376  17.109  1.00  0.00     0.083 A 
HETATM    4  C   LIG     1      14.015  32.185  16.892  1.00  0.00     0.020 A 
HETATM    5  C   LIG     1      14.330  31.401  15.779  1.00  0.00    -0.002 A 
HETATM    6  C   LIG     1      13.662  30.196  15.515  1.00  0.00     0.014 A 
HETATM    7  C   LIG     1      14.007  29.440  14.390  1.00  0.00     0.001 A 
HETATM    8  C   LIG     1      15.014  29.883  13.527  1.00  0.00     0.003 A 
HETATM    9  C   LIG     1      15.684  31.084  13.782  1.00  0.00     0.038 A 
HETATM   10  C   LIG     1      15.347  31.848  14.906  1.00  0.00     0.089 A 
HETATM   11  O   LIG     1      15.984  32.990  15.149  1.00  0.00    -0.275 OA
ENDROOT
TORSDOF 0
ENDMDL
MODEL 12
REMARK VINA RESULT:      -6.3      3.021      4.168
REMARK  0 active torsions:
REMARK  status: ('A' for Active; 'I' for Inactive)
ROOT
HETATM    1  O   LIG     1      18.348  36.537  18.279  1.00  0.00    -0.260 OA
HETATM    2  C   LIG     1      18.309  37.123  19.392  1.00  0.00     0.288 A 
HETATM    3  C   LIG     1      18.969  38.344  19.561  1.00  0.00     0.083 A 
HETATM    4  C   LIG     1      18.913  38.978  20.803  1.00  0.00     0.020 A 
HETATM    5  C   LIG     1      18.201  38.380  21.846  1.00  0.00    -0.002 A 
HETATM    6  C   LIG     1      18.113  38.975  23.113  1.00  0.00     0.014 A 
HETATM    7  C   LIG     1      17.391  38.344  24.130  1.00  0.00     0.001 A 
HETATM    8  C   LIG     1      16.756  37.121  23.888  1.00  0.00     0.003 A 
HETATM    9  C   LIG     1      16.838  36.522  22.627  1.00  0.00     0.038 A 
HETATM   10  C   LIG     1      17.558  37.144  21.602  1.00  0.00     0.089 A 
HETATM   11  O   LIG     1      17.637  36.575  20.403  1.00  0.00    -0.275 OA
ENDROOT
TORSDOF 0
ENDMDL
MODEL 13
REMARK VINA RESULT:      -6.2     10.243     11.479
REMARK  0 active torsions:
REMARK  status: ('A' for Active; 'I' for Inactive)
ROOT
HETATM    1  O   LIG     1      18.111  32.931  12.796  1.00  0.00    -0.260 OA
HETATM    2  C   LIG     1      17.229  32.653  13.648  1.00  0.00     0.288 A 
HETATM    3  C   LIG     1      17.145  33.392  14.833  1.00  0.00     0.083 A 
HETATM    4  C   LIG     1      16.159  33.067  15.765  1.00  0.00     0.020 A 
HETATM    5  C   LIG     1      15.282  32.012  15.496  1.00  0.00    -0.002 A 
HETATM    6  C   LIG     1      14.274  31.644  16.399  1.00  0.00     0.014 A 
HETATM    7  C   LIG     1      13.417  30.583  16.092  1.00  0.00     0.001 A 
HETATM    8  C   LIG     1      13.562  29.887  14.888  1.00  0.00     0.003 A 
HETATM    9  C   LIG     1      14.564  30.248  13.981  1.00  0.00     0.038 A 
HETATM   10  C   LIG     1      15.428  31.309  14.278  1.00  0.00     0.089 A 
HETATM   11  O   LIG     1      16.381  31.652  13.417  1.00  0.00    -0.275 OA
ENDROOT
TORSDOF 0
ENDMDL
MODEL 14
REMARK VINA RESULT:      -6.2      8.920     10.313
REMARK  0 active torsions:
REMARK  status: ('A' for Active; 'I' for Inactive)
ROOT
HETATM    1  O   LIG     1      17.922  34.771  14.278  1.00  0.00    -0.260 OA
HETATM    2  C   LIG     1      17.108  33.836  14.491  1.00  0.00     0.288 A 
HETATM    3  C   LIG     1      16.901  32.854  13.517  1.00  0.00     0.083 A 
HETATM    4  C   LIG     1      15.993  31.826  13.774  1.00  0.00     0.020 A 
HETATM    5  C   LIG     1      15.312  31.802  14.995  1.00  0.00    -0.002 A 
HETATM    6  C   LIG     1      14.390  30.791  15.303  1.00  0.00     0.014 A 
HETATM    7  C   LIG     1      13.729  30.804  16.535  1.00  0.00     0.001 A 
HETATM    8  C   LIG     1      13.986  31.820  17.461  1.00  0.00     0.003 A 
HETATM    9  C   LIG     1      14.905  32.830  17.162  1.00  0.00     0.038 A 
HETATM   10  C   LIG     1      15.571  32.828  15.931  1.00  0.00     0.089 A 
HETATM   11  O   LIG     1      16.446  33.790  15.645  1.00  0.00    -0.275 OA
ENDROOT
TORSDOF 0
ENDMDL
MODEL 15
REMARK VINA RESULT:      -6.1      3.185      4.148
REMARK  0 active torsions:
REMARK  status: ('A' for Active; 'I' for Inactive)
ROOT
HETATM    1  O   LIG     1      14.501  34.197  21.634  1.00  0.00    -0.260 OA
HETATM    2  C   LIG     1      15.392  35.072  21.486  1.00  0.00     0.288 A 
HETATM    3  C   LIG     1      16.369  34.913  20.498  1.00  0.00     0.083 A 
HETATM    4  C   LIG     1      17.349  35.896  20.350  1.00  0.00     0.020 A 
HETATM    5  C   LIG     1      17.331  37.013  21.192  1.00  0.00    -0.002 A 
HETATM    6  C   LIG     1      18.292  38.029  21.085  1.00  0.00     0.014 A 
HETATM    7  C   LIG     1      18.240  39.129  21.946  1.00  0.00     0.001 A 
HETATM    8  C   LIG     1      17.233  39.220  22.912  1.00  0.00     0.003 A 
HETATM    9  C   LIG     1      16.271  38.211  23.024  1.00  0.00     0.038 A 
HETATM   10  C   LIG     1      16.314  37.105  22.168  1.00  0.00     0.089 A 
HETATM   11  O   LIG     1      15.399  36.145  22.274  1.00  0.00    -0.275 OA
ENDROOT
TORSDOF 0
ENDMDL
MODEL 16
REMARK VINA RESULT:      -6.0      9.122     10.864
REMARK  0 active torsions:
REMARK  status: ('A' for Active; 'I' for Inactive)
ROOT
HETATM    1  O   LIG     1      15.374  34.520  17.447  1.00  0.00    -0.260 OA
HETATM    2  C   LIG     1      15.400  33.575  16.617  1.00  0.00     0.288 A 
HETATM    3  C   LIG     1      16.439  33.493  15.685  1.00  0.00     0.083 A 
HETATM    4  C   LIG     1      16.449  32.436  14.773  1.00  0.00     0.020 A 
HETATM    5  C   LIG     1      15.422  31.488  14.812  1.00  0.00    -0.002 A 
HETATM    6  C   LIG     1      15.385  30.407  13.919  1.00  0.00     0.014 A 
HETATM    7  C   LIG     1      14.341  29.480  13.991  1.00  0.00     0.001 A 
HETATM    8  C   LIG     1      13.334  29.627  14.950  1.00  0.00     0.003 A 
HETATM    9  C   LIG     1      13.365  30.701  15.845  1.00  0.00     0.038 A 
HETATM   10  C   LIG     1      14.405  31.635  15.782  1.00  0.00     0.089 A 
HETATM   11  O   LIG     1      14.434  32.658  16.632  1.00  0.00    -0.275 OA
ENDROOT
TORSDOF 0
ENDMDL
MODEL 17
REMARK VINA RESULT:      -5.7      9.977     11.503
REMARK  0 active torsions:
REMARK  status: ('A' for Active; 'I' for Inactive)
ROOT
HETATM    1  O   LIG     1      15.830  28.833  12.871  1.00  0.00    -0.260 OA
HETATM    2  C   LIG     1      15.279  29.546  13.749  1.00  0.00     0.288 A 
HETATM    3  C   LIG     1      14.013  29.204  14.234  1.00  0.00     0.083 A 
HETATM    4  C   LIG     1      13.420  30.008  15.208  1.00  0.00     0.020 A 
HETATM    5  C   LIG     1      14.103  31.136  15.673  1.00  0.00    -0.002 A 
HETATM    6  C   LIG     1      13.552  31.978  16.651  1.00  0.00     0.014 A 
HETATM    7  C   LIG     1      14.268  33.096  17.090  1.00  0.00     0.001 A 
HETATM    8  C   LIG     1      15.530  33.377  16.558  1.00  0.00     0.003 A 
HETATM    9  C   LIG     1      16.086  32.542  15.584  1.00  0.00     0.038 A 
HETATM   10  C   LIG     1      15.379  31.421  15.137  1.00  0.00     0.089 A 
HETATM   11  O   LIG     1      15.907  30.626  14.210  1.00  0.00    -0.275 OA
ENDROOT
TORSDOF 0
ENDMDL
MODEL 18
REMARK VINA RESULT:      -5.6     10.324     11.774
REMARK  0 active torsions:
REMARK  status: ('A' for Active; 'I' for Inactive)
ROOT
HETATM    1  O   LIG     1      12.950  28.814  14.111  1.00  0.00    -0.260 OA
HETATM    2  C   LIG     1      13.622  29.778  14.561  1.00  0.00     0.288 A 
HETATM    3  C   LIG     1      13.349  30.283  15.837  1.00  0.00     0.083 A 
HETATM    4  C   LIG     1      14.106  31.352  16.318  1.00  0.00     0.020 A 
HETATM    5  C   LIG     1      15.116  31.892  15.516  1.00  0.00    -0.002 A 
HETATM    6  C   LIG     1      15.906  32.966  15.952  1.00  0.00     0.014 A 
HETATM    7  C   LIG     1      16.906  33.478  15.120  1.00  0.00     0.001 A 
HETATM    8  C   LIG     1      17.122  32.921  13.855  1.00  0.00     0.003 A 
HETATM    9  C   LIG     1      16.339  31.850  13.414  1.00  0.00     0.038 A 
HETATM   10  C   LIG     1      15.335  31.330  14.238  1.00  0.00     0.089 A 
HETATM   11  O   LIG     1      14.590  30.311  13.819  1.00  0.00    -0.275 OA
ENDROOT
TORSDOF 0
ENDMDL
MODEL 19
REMARK VINA RESULT:      -5.5      3.302      4.226
REMARK  0 active torsions:
REMARK  status: ('A' for Active; 'I' for Inactive)
ROOT
HETATM    1  O   LIG     1      19.272  39.409  21.921  1.00  0.00    -0.260 OA
HETATM    2  C   LIG     1      18.244  38.686  21.977  1.00  0.00     0.288 A 
HETATM    3  C   LIG     1      17.188  39.038  22.824  1.00  0.00     0.083 A 
HETATM    4  C   LIG     1      16.057  38.222  22.871  1.00  0.00     0.020 A 
HETATM    5  C   LIG     1      16.006  37.074  22.074  1.00  0.00    -0.002 A 
HETATM    6  C   LIG     1      14.893  36.221  22.084  1.00  0.00     0.014 A 
HETATM    7  C   LIG     1      14.882  35.083  21.272  1.00  0.00     0.001 A 
HETATM    8  C   LIG     1      15.975  34.794  20.450  1.00  0.00     0.003 A 
HETATM    9  C   LIG     1      17.088  35.640  20.434  1.00  0.00     0.038 A 
HETATM   10  C   LIG     1      17.111  36.782  21.243  1.00  0.00     0.089 A 
HETATM   11  O   LIG     1      18.170  37.587  21.228  1.00  0.00    -0.275 OA
ENDROOT
TORSDOF 0
ENDMDL
MODEL 20
REMARK VINA RESULT:      -5.0      5.708      7.669
REMARK  0 active torsions:
REMARK  status: ('A' for Active; 'I' for Inactive)
ROOT
HETATM    1  O   LIG     1      16.384  35.921  20.700  1.00  0.00    -0.260 OA
HETATM    2  C   LIG     1      15.929  34.895  20.131  1.00  0.00     0.288 A 
HETATM    3  C   LIG     1      15.527  33.794  20.894  1.00  0.00     0.083 A 
HETATM    4  C   LIG     1      15.024  32.667  20.244  1.00  0.00     0.020 A 
HETATM    5  C   LIG     1      14.935  32.664  18.848  1.00  0.00    -0.002 A 
HETATM    6  C   LIG     1      14.436  31.557  18.146  1.00  0.00     0.014 A 
HETATM    7  C   LIG     1      14.363  31.593  16.750  1.00  0.00     0.001 A 
HETATM    8  C   LIG     1      14.784  32.730  16.053  1.00  0.00     0.003 A 
HETATM    9  C   LIG     1      15.281  33.838  16.746  1.00  0.00     0.038 A 
HETATM   10  C   LIG     1      15.360  33.812  18.143  1.00  0.00     0.089 A 
HETATM   11  O   LIG     1      15.833  34.866  18.804  1.00  0.00    -0.275 OA
ENDROOT
TORSDOF 0
ENDMDL
