MODEL 1
REMARK VINA RESULT:      -6.9      0.000      0.000
REMARK  3 active torsions:
REMARK  status: ('A' for Active; 'I' for Inactive)
REMARK    1  A    between atoms: C_2  and  N_3 
REMARK    2  A    between atoms: N_3  and  C_10 
REMARK    3  A    between atoms: N_3  and  C_4 
ROOT
HETATM    1  C   LIG     1      17.270  36.719  24.204  1.00  0.00     0.030 A 
HETATM    2  C   LIG     1      17.137  35.342  24.468  1.00  0.00     0.029 A 
HETATM    3  C   LIG     1      17.640  34.795  25.652  1.00  0.00     0.002 A 
HETATM    4  C   LIG     1      18.283  35.610  26.584  1.00  0.00     0.000 A 
HETATM    5  C   LIG     1      18.425  36.977  26.334  1.00  0.00     0.002 A 
HETATM    6  C   LIG     1      17.923  37.530  25.152  1.00  0.00     0.029 A 
ENDROOT
BRANCH   1   7
HETATM    7  N   LIG     1      16.742  37.293  22.985  1.00  0.00    -0.382 N 
BRANCH   7   8
HETATM    8  C   LIG     1      16.092  36.445  21.971  1.00  0.00     0.118 C 
HETATM    9  C   LIG     1      17.116  35.904  20.979  1.00  0.00     0.026 C 
ENDBRANCH   7   8
BRANCH   7  10
HETATM   10  C   LIG     1      16.849  38.740  22.740  1.00  0.00     0.118 C 
HETATM   11  C   LIG     1      18.119  39.071  21.959  1.00  0.00     0.026 C 
ENDBRANCH   7  10
ENDBRANCH   1   7
TORSDOF 3
ENDMDL
MODEL 2
REMARK VINA RESULT:      -6.9      0.014      2.341
REMARK  3 active torsions:
REMARK  status: ('A' for Active; 'I' for Inactive)
REMARK    1  A    between atoms: C_2  and  N_3 
REMARK    2  A    between atoms: N_3  and  C_10 
REMARK    3  A    between atoms: N_3  and  C_4 
ROOT
HETATM    1  C   LIG     1      17.267  36.728  24.209  1.00  0.00     0.030 A 
HETATM    2  C   LIG     1      17.924  37.530  25.162  1.00  0.00     0.029 A 
HETATM    3  C   LIG     1      18.431  36.965  26.336  1.00  0.00     0.002 A 
HETATM    4  C   LIG     1      18.289  35.597  26.575  1.00  0.00     0.000 A 
HETATM    5  C   LIG     1      17.637  34.790  25.640  1.00  0.00     0.002 A 
HETATM    6  C   LIG     1      17.127  35.350  24.464  1.00  0.00     0.029 A 
ENDROOT
BRANCH   1   7
HETATM    7  N   LIG     1      16.748  37.305  22.987  1.00  0.00    -0.382 N 
BRANCH   7   8
HETATM    8  C   LIG     1      16.853  38.752  22.732  1.00  0.00     0.118 C 
HETATM    9  C   LIG     1      18.130  39.076  21.962  1.00  0.00     0.026 C 
ENDBRANCH   7   8
BRANCH   7  10
HETATM   10  C   LIG     1      16.104  36.450  21.978  1.00  0.00     0.118 C 
HETATM   11  C   LIG     1      17.129  35.913  20.981  1.00  0.00     0.026 C 
ENDBRANCH   7  10
ENDBRANCH   1   7
TORSDOF 3
ENDMDL
MODEL 3
REMARK VINA RESULT:      -6.5      1.724      4.415
REMARK  3 active torsions:
REMARK  status: ('A' for Active; 'I' for Inactive)
REMARK    1  A    between atoms: C_2  and  N_3 
REMARK    2  A    between atoms: N_3  and  C_10 
REMARK    3  A    between atoms: N_3  and  C_4 
ROOT
HETATM    1  C   LIG     1      17.742  37.507  21.302  1.00  0.00     0.030 A 
HETATM    2  C   LIG     1      18.331  36.712  20.300  1.00  0.00     0.029 A 
HETATM    3  C   LIG     1      19.259  37.264  19.411  1.00  0.00     0.002 A 
HETATM    4  C   LIG     1      19.609  38.611  19.508  1.00  0.00     0.000 A 
HETATM    5  C   LIG     1      19.031  39.412  20.496  1.00  0.00     0.002 A 
HETATM    6  C   LIG     1      18.102  38.866  21.387  1.00  0.00     0.029 A 
ENDROOT
BRANCH   1   7
HETATM    7  N   LIG     1      16.789  36.940  22.232  1.00  0.00    -0.382 N 
BRANCH   7   8
HETATM    8  C   LIG     1      16.258  35.581  22.033  1.00  0.00     0.118 C 
HETATM    9  C   LIG     1      14.926  35.622  21.291  1.00  0.00     0.026 C 
ENDBRANCH   7   8
BRANCH   7  10
HETATM   10  C   LIG     1      16.333  37.719  23.394  1.00  0.00     0.118 C 
HETATM   11  C   LIG     1      17.086  37.308  24.658  1.00  0.00     0.026 C 
ENDBRANCH   7  10
ENDBRANCH   1   7
TORSDOF 3
ENDMDL
MODEL 4
REMARK VINA RESULT:      -6.5      1.734      4.734
REMARK  3 active torsions:
REMARK  status: ('A' for Active; 'I' for Inactive)
REMARK    1  A    between atoms: C_2  and  N_3 
REMARK    2  A    between atoms: N_3  and  C_10 
REMARK    3  A    between atoms: N_3  and  C_4 
ROOT
HETATM    1  C   LIG     1      17.792  37.476  21.295  1.00  0.00     0.030 A 
HETATM    2  C   LIG     1      18.311  36.674  20.260  1.00  0.00     0.029 A 
HETATM    3  C   LIG     1      19.268  37.186  19.378  1.00  0.00     0.002 A 
HETATM    4  C   LIG     1      19.716  38.501  19.515  1.00  0.00     0.000 A 
HETATM    5  C   LIG     1      19.207  39.308  20.535  1.00  0.00     0.002 A 
HETATM    6  C   LIG     1      18.250  38.801  21.419  1.00  0.00     0.029 A 
ENDROOT
BRANCH   1   7
HETATM    7  N   LIG     1      16.809  36.949  22.217  1.00  0.00    -0.382 N 
BRANCH   7   8
HETATM    8  C   LIG     1      16.349  37.747  23.367  1.00  0.00     0.118 C 
HETATM    9  C   LIG     1      17.111  37.366  24.632  1.00  0.00     0.026 C 
ENDBRANCH   7   8
BRANCH   7  10
HETATM   10  C   LIG     1      16.254  35.600  22.020  1.00  0.00     0.118 C 
HETATM   11  C   LIG     1      14.934  35.658  21.255  1.00  0.00     0.026 C 
ENDBRANCH   7  10
ENDBRANCH   1   7
TORSDOF 3
ENDMDL
MODEL 5
REMARK VINA RESULT:      -5.6      1.370      3.973
REMARK  3 active torsions:
REMARK  status: ('A' for Active; 'I' for Inactive)
REMARK    1  A    between atoms: C_2  and  N_3 
REMARK    2  A    between atoms: N_3  and  C_10 
REMARK    3  A    between atoms: N_3  and  C_4 
ROOT
HETATM    1  C   LIG     1      16.661  36.773  22.601  1.00  0.00     0.030 A 
HETATM    2  C   LIG     1      15.312  36.942  22.234  1.00  0.00     0.029 A 
HETATM    3  C   LIG     1      14.666  35.983  21.449  1.00  0.00     0.002 A 
HETATM    4  C   LIG     1      15.353  34.846  21.021  1.00  0.00     0.000 A 
HETATM    5  C   LIG     1      16.692  34.667  21.376  1.00  0.00     0.002 A 
HETATM    6  C   LIG     1      17.344  35.624  22.160  1.00  0.00     0.029 A 
ENDROOT
BRANCH   1   7
HETATM    7  N   LIG     1      17.334  37.758  23.422  1.00  0.00    -0.382 N 
BRANCH   7   8
HETATM    8  C   LIG     1      18.330  38.673  22.838  1.00  0.00     0.118 C 
HETATM    9  C   LIG     1      17.951  39.047  21.408  1.00  0.00     0.026 C 
ENDBRANCH   7   8
BRANCH   7  10
HETATM   10  C   LIG     1      17.031  37.859  24.858  1.00  0.00     0.118 C 
HETATM   11  C   LIG     1      17.922  36.924  25.673  1.00  0.00     0.026 C 
ENDBRANCH   7  10
ENDBRANCH   1   7
TORSDOF 3
ENDMDL
MODEL 6
REMARK VINA RESULT:      -5.3      1.382      4.074
REMARK  3 active torsions:
REMARK  status: ('A' for Active; 'I' for Inactive)
REMARK    1  A    between atoms: C_2  and  N_3 
REMARK    2  A    between atoms: N_3  and  C_10 
REMARK    3  A    between atoms: N_3  and  C_4 
ROOT
HETATM    1  C   LIG     1      17.236  36.068  23.152  1.00  0.00     0.030 A 
HETATM    2  C   LIG     1      16.607  34.904  22.669  1.00  0.00     0.029 A 
HETATM    3  C   LIG     1      16.328  34.762  21.306  1.00  0.00     0.002 A 
HETATM    4  C   LIG     1      16.669  35.776  20.410  1.00  0.00     0.000 A 
HETATM    5  C   LIG     1      17.291  36.937  20.876  1.00  0.00     0.002 A 
HETATM    6  C   LIG     1      17.572  37.085  22.238  1.00  0.00     0.029 A 
ENDROOT
BRANCH   1   7
HETATM    7  N   LIG     1      17.537  36.217  24.560  1.00  0.00    -0.382 N 
BRANCH   7   8
HETATM    8  C   LIG     1      17.195  35.154  25.521  1.00  0.00     0.118 C 
HETATM    9  C   LIG     1      18.388  34.826  26.414  1.00  0.00     0.026 C 
ENDBRANCH   7   8
BRANCH   7  10
HETATM   10  C   LIG     1      18.191  37.439  25.053  1.00  0.00     0.118 C 
HETATM   11  C   LIG     1      17.174  38.391  25.677  1.00  0.00     0.026 C 
ENDBRANCH   7  10
ENDBRANCH   1   7
TORSDOF 3
ENDMDL
MODEL 7
REMARK VINA RESULT:      -5.3      1.451      3.830
REMARK  3 active torsions:
REMARK  status: ('A' for Active; 'I' for Inactive)
REMARK    1  A    between atoms: C_2  and  N_3 
REMARK    2  A    between atoms: N_3  and  C_10 
REMARK    3  A    between atoms: N_3  and  C_4 
ROOT
HETATM    1  C   LIG     1      16.769  36.946  22.261  1.00  0.00     0.030 A 
HETATM    2  C   LIG     1      15.372  37.013  22.097  1.00  0.00     0.029 A 
HETATM    3  C   LIG     1      14.669  35.933  21.555  1.00  0.00     0.002 A 
HETATM    4  C   LIG     1      15.347  34.776  21.169  1.00  0.00     0.000 A 
HETATM    5  C   LIG     1      16.733  34.697  21.324  1.00  0.00     0.002 A 
HETATM    6  C   LIG     1      17.442  35.774  21.865  1.00  0.00     0.029 A 
ENDROOT
BRANCH   1   7
HETATM    7  N   LIG     1      17.502  38.056  22.832  1.00  0.00    -0.382 N 
BRANCH   7   8
HETATM    8  C   LIG     1      17.989  38.005  24.221  1.00  0.00     0.118 C 
HETATM    9  C   LIG     1      17.208  36.974  25.032  1.00  0.00     0.026 C 
ENDBRANCH   7   8
BRANCH   7  10
HETATM   10  C   LIG     1      17.771  39.258  22.028  1.00  0.00     0.118 C 
HETATM   11  C   LIG     1      18.960  39.039  21.095  1.00  0.00     0.026 C 
ENDBRANCH   7  10
ENDBRANCH   1   7
TORSDOF 3
ENDMDL
MODEL 8
REMARK VINA RESULT:      -5.0      2.709      4.177
REMARK  3 active torsions:
REMARK  status: ('A' for Active; 'I' for Inactive)
REMARK    1  A    between atoms: C_2  and  N_3 
REMARK    2  A    between atoms: N_3  and  C_10 
REMARK    3  A    between atoms: N_3  and  C_4 
ROOT
HETATM    1  C   LIG     1      17.434  36.524  20.970  1.00  0.00     0.030 A 
HETATM    2  C   LIG     1      17.260  36.021  22.273  1.00  0.00     0.029 A 
HETATM    3  C   LIG     1      16.380  34.961  22.512  1.00  0.00     0.002 A 
HETATM    4  C   LIG     1      15.664  34.391  21.459  1.00  0.00     0.000 A 
HETATM    5  C   LIG     1      15.825  34.882  20.161  1.00  0.00     0.002 A 
HETATM    6  C   LIG     1      16.703  35.943  19.916  1.00  0.00     0.029 A 
ENDROOT
BRANCH   1   7
HETATM    7  N   LIG     1      18.351  37.615  20.714  1.00  0.00    -0.382 N 
BRANCH   7   8
HETATM    8  C   LIG     1      19.131  37.667  19.465  1.00  0.00     0.118 C 
HETATM    9  C   LIG     1      20.218  38.735  19.549  1.00  0.00     0.026 C 
ENDBRANCH   7   8
BRANCH   7  10
HETATM   10  C   LIG     1      18.518  38.692  21.702  1.00  0.00     0.118 C 
HETATM   11  C   LIG     1      17.163  39.200  22.192  1.00  0.00     0.026 C 
ENDBRANCH   7  10
ENDBRANCH   1   7
TORSDOF 3
ENDMDL
MODEL 9
REMARK VINA RESULT:      -4.9      8.038     10.923
REMARK  3 active torsions:
REMARK  status: ('A' for Active; 'I' for Inactive)
REMARK    1  A    between atoms: C_2  and  N_3 
REMARK    2  A    between atoms: N_3  and  C_10 
REMARK    3  A    between atoms: N_3  and  C_4 
ROOT
HETATM    1  C   LIG     1      14.940  31.205  15.264  1.00  0.00     0.030 A 
HETATM    2  C   LIG     1      15.468  30.305  14.318  1.00  0.00     0.029 A 
HETATM    3  C   LIG     1      14.688  29.256  13.825  1.00  0.00     0.002 A 
HETATM    4  C   LIG     1      13.375  29.089  14.267  1.00  0.00     0.000 A 
HETATM    5  C   LIG     1      12.839  29.973  15.206  1.00  0.00     0.002 A 
HETATM    6  C   LIG     1      13.615  31.024  15.704  1.00  0.00     0.029 A 
ENDROOT
BRANCH   1   7
HETATM    7  N   LIG     1      15.739  32.300  15.771  1.00  0.00    -0.382 N 
BRANCH   7   8
HETATM    8  C   LIG     1      17.152  32.447  15.381  1.00  0.00     0.118 C 
HETATM    9  C   LIG     1      17.395  33.803  14.724  1.00  0.00     0.026 C 
ENDBRANCH   7   8
BRANCH   7  10
HETATM   10  C   LIG     1      15.149  33.286  16.690  1.00  0.00     0.118 C 
HETATM   11  C   LIG     1      15.221  32.800  18.135  1.00  0.00     0.026 C 
ENDBRANCH   7  10
ENDBRANCH   1   7
TORSDOF 3
ENDMDL
MODEL 10
REMARK VINA RESULT:      -4.9      7.995     10.893
REMARK  3 active torsions:
REMARK  status: ('A' for Active; 'I' for Inactive)
REMARK    1  A    between atoms: C_2  and  N_3 
REMARK    2  A    between atoms: N_3  and  C_10 
REMARK    3  A    between atoms: N_3  and  C_4 
ROOT
HETATM    1  C   LIG     1      14.951  31.277  15.253  1.00  0.00     0.030 A 
HETATM    2  C   LIG     1      13.635  31.079  15.712  1.00  0.00     0.029 A 
HETATM    3  C   LIG     1      12.872  30.007  15.237  1.00  0.00     0.002 A 
HETATM    4  C   LIG     1      13.410  29.123  14.302  1.00  0.00     0.000 A 
HETATM    5  C   LIG     1      14.714  29.309  13.836  1.00  0.00     0.002 A 
HETATM    6  C   LIG     1      15.481  30.379  14.307  1.00  0.00     0.029 A 
ENDROOT
BRANCH   1   7
HETATM    7  N   LIG     1      15.750  32.378  15.748  1.00  0.00    -0.382 N 
BRANCH   7   8
HETATM    8  C   LIG     1      15.185  33.353  16.697  1.00  0.00     0.118 C 
HETATM    9  C   LIG     1      15.220  32.806  18.121  1.00  0.00     0.026 C 
ENDBRANCH   7   8
BRANCH   7  10
HETATM   10  C   LIG     1      17.144  32.541  15.306  1.00  0.00     0.118 C 
HETATM   11  C   LIG     1      17.395  33.958  14.797  1.00  0.00     0.026 C 
ENDBRANCH   7  10
ENDBRANCH   1   7
TORSDOF 3
ENDMDL
MODEL 11
REMARK VINA RESULT:      -4.8      6.140      9.209
REMARK  3 active torsions:
REMARK  status: ('A' for Active; 'I' for Inactive)
REMARK    1  A    between atoms: C_2  and  N_3 
REMARK    2  A    between atoms: N_3  and  C_10 
REMARK    3  A    between atoms: N_3  and  C_4 
ROOT
HETATM    1  C   LIG     1      14.892  32.292  17.099  1.00  0.00     0.030 A 
HETATM    2  C   LIG     1      13.818  31.391  16.967  1.00  0.00     0.029 A 
HETATM    3  C   LIG     1      13.656  30.649  15.793  1.00  0.00     0.002 A 
HETATM    4  C   LIG     1      14.559  30.795  14.739  1.00  0.00     0.000 A 
HETATM    5  C   LIG     1      15.627  31.688  14.856  1.00  0.00     0.002 A 
HETATM    6  C   LIG     1      15.794  32.433  16.027  1.00  0.00     0.029 A 
ENDROOT
BRANCH   1   7
HETATM    7  N   LIG     1      15.072  33.056  18.315  1.00  0.00    -0.382 N 
BRANCH   7   8
HETATM    8  C   LIG     1      15.432  34.484  18.263  1.00  0.00     0.118 C 
HETATM    9  C   LIG     1      15.678  35.033  19.665  1.00  0.00     0.026 C 
ENDBRANCH   7   8
BRANCH   7  10
HETATM   10  C   LIG     1      14.897  32.414  19.628  1.00  0.00     0.118 C 
HETATM   11  C   LIG     1      16.039  31.442  19.918  1.00  0.00     0.026 C 
ENDBRANCH   7  10
ENDBRANCH   1   7
TORSDOF 3
ENDMDL
MODEL 12
REMARK VINA RESULT:      -4.8      6.148      9.128
REMARK  3 active torsions:
REMARK  status: ('A' for Active; 'I' for Inactive)
REMARK    1  A    between atoms: C_2  and  N_3 
REMARK    2  A    between atoms: N_3  and  C_10 
REMARK    3  A    between atoms: N_3  and  C_4 
ROOT
HETATM    1  C   LIG     1      14.891  32.267  17.113  1.00  0.00     0.030 A 
HETATM    2  C   LIG     1      15.805  32.397  16.050  1.00  0.00     0.029 A 
HETATM    3  C   LIG     1      15.635  31.660  14.874  1.00  0.00     0.002 A 
HETATM    4  C   LIG     1      14.555  30.786  14.744  1.00  0.00     0.000 A 
HETATM    5  C   LIG     1      13.642  30.645  15.792  1.00  0.00     0.002 A 
HETATM    6  C   LIG     1      13.808  31.379  16.970  1.00  0.00     0.029 A 
ENDROOT
BRANCH   1   7
HETATM    7  N   LIG     1      15.056  33.035  18.329  1.00  0.00    -0.382 N 
BRANCH   7   8
HETATM    8  C   LIG     1      14.897  32.401  19.649  1.00  0.00     0.118 C 
HETATM    9  C   LIG     1      16.033  31.419  19.919  1.00  0.00     0.026 C 
ENDBRANCH   7   8
BRANCH   7  10
HETATM   10  C   LIG     1      15.385  34.468  18.263  1.00  0.00     0.118 C 
HETATM   11  C   LIG     1      15.662  35.031  19.655  1.00  0.00     0.026 C 
ENDBRANCH   7  10
ENDBRANCH   1   7
TORSDOF 3
ENDMDL
MODEL 13
REMARK VINA RESULT:      -4.7      5.974      8.383
REMARK  3 active torsions:
REMARK  status: ('A' for Active; 'I' for Inactive)
REMARK    1  A    between atoms: C_2  and  N_3 
REMARK    2  A    between atoms: N_3  and  C_10 
REMARK    3  A    between atoms: N_3  and  C_4 
ROOT
HETATM    1  C   LIG     1      15.038  32.746  17.737  1.00  0.00     0.030 A 
HETATM    2  C   LIG     1      15.141  32.047  18.955  1.00  0.00     0.029 A 
HETATM    3  C   LIG     1      15.421  32.729  20.143  1.00  0.00     0.002 A 
HETATM    4  C   LIG     1      15.602  34.113  20.131  1.00  0.00     0.000 A 
HETATM    5  C   LIG     1      15.506  34.818  18.930  1.00  0.00     0.002 A 
HETATM    6  C   LIG     1      15.227  34.141  17.739  1.00  0.00     0.029 A 
ENDROOT
BRANCH   1   7
HETATM    7  N   LIG     1      14.739  32.047  16.505  1.00  0.00    -0.382 N 
BRANCH   7   8
HETATM    8  C   LIG     1      15.457  32.370  15.260  1.00  0.00     0.118 C 
HETATM    9  C   LIG     1      16.958  32.153  15.428  1.00  0.00     0.026 C 
ENDBRANCH   7   8
BRANCH   7  10
HETATM   10  C   LIG     1      13.707  30.998  16.479  1.00  0.00     0.118 C 
HETATM   11  C   LIG     1      13.669  30.300  15.121  1.00  0.00     0.026 C 
ENDBRANCH   7  10
ENDBRANCH   1   7
TORSDOF 3
ENDMDL
MODEL 14
REMARK VINA RESULT:      -4.7      5.978      8.383
REMARK  3 active torsions:
REMARK  status: ('A' for Active; 'I' for Inactive)
REMARK    1  A    between atoms: C_2  and  N_3 
REMARK    2  A    between atoms: N_3  and  C_10 
REMARK    3  A    between atoms: N_3  and  C_4 
ROOT
HETATM    1  C   LIG     1      15.137  32.770  17.729  1.00  0.00     0.030 A 
HETATM    2  C   LIG     1      15.285  34.170  17.757  1.00  0.00     0.029 A 
HETATM    3  C   LIG     1      15.509  34.836  18.965  1.00  0.00     0.002 A 
HETATM    4  C   LIG     1      15.586  34.117  20.159  1.00  0.00     0.000 A 
HETATM    5  C   LIG     1      15.438  32.729  20.147  1.00  0.00     0.002 A 
HETATM    6  C   LIG     1      15.214  32.057  18.941  1.00  0.00     0.029 A 
ENDROOT
BRANCH   1   7
HETATM    7  N   LIG     1      14.915  32.073  16.480  1.00  0.00    -0.382 N 
BRANCH   7   8
HETATM    8  C   LIG     1      13.842  31.071  16.355  1.00  0.00     0.118 C 
HETATM    9  C   LIG     1      12.482  31.693  16.659  1.00  0.00     0.026 C 
ENDBRANCH   7   8
BRANCH   7  10
HETATM   10  C   LIG     1      15.764  32.356  15.312  1.00  0.00     0.118 C 
HETATM   11  C   LIG     1      15.588  31.287  14.236  1.00  0.00     0.026 C 
ENDBRANCH   7  10
ENDBRANCH   1   7
TORSDOF 3
ENDMDL
MODEL 15
REMARK VINA RESULT:      -4.7      9.513     11.253
REMARK  3 active torsions:
REMARK  status: ('A' for Active; 'I' for Inactive)
REMARK    1  A    between atoms: C_2  and  N_3 
REMARK    2  A    between atoms: N_3  and  C_10 
REMARK    3  A    between atoms: N_3  and  C_4 
ROOT
HETATM    1  C   LIG     1      15.903  32.145  14.591  1.00  0.00     0.030 A 
HETATM    2  C   LIG     1      16.437  32.251  13.293  1.00  0.00     0.029 A 
HETATM    3  C   LIG     1      17.392  33.227  12.996  1.00  0.00     0.002 A 
HETATM    4  C   LIG     1      17.825  34.110  13.987  1.00  0.00     0.000 A 
HETATM    5  C   LIG     1      17.301  34.018  15.279  1.00  0.00     0.002 A 
HETATM    6  C   LIG     1      16.345  33.043  15.581  1.00  0.00     0.029 A 
ENDROOT
BRANCH   1   7
HETATM    7  N   LIG     1      14.921  31.129  14.907  1.00  0.00    -0.382 N 
BRANCH   7   8
HETATM    8  C   LIG     1      14.271  31.093  16.229  1.00  0.00     0.118 C 
HETATM    9  C   LIG     1      12.799  30.715  16.100  1.00  0.00     0.026 C 
ENDBRANCH   7   8
BRANCH   7  10
HETATM   10  C   LIG     1      14.556  30.113  13.907  1.00  0.00     0.118 C 
HETATM   11  C   LIG     1      15.402  28.853  14.074  1.00  0.00     0.026 C 
ENDBRANCH   7  10
ENDBRANCH   1   7
TORSDOF 3
ENDMDL
MODEL 16
REMARK VINA RESULT:      -4.7      7.501     10.079
REMARK  3 active torsions:
REMARK  status: ('A' for Active; 'I' for Inactive)
REMARK    1  A    between atoms: C_2  and  N_3 
REMARK    2  A    between atoms: N_3  and  C_10 
REMARK    3  A    between atoms: N_3  and  C_4 
ROOT
HETATM    1  C   LIG     1      15.642  32.390  15.738  1.00  0.00     0.030 A 
HETATM    2  C   LIG     1      15.437  31.645  14.561  1.00  0.00     0.029 A 
HETATM    3  C   LIG     1      16.177  31.922  13.408  1.00  0.00     0.002 A 
HETATM    4  C   LIG     1      17.128  32.944  13.413  1.00  0.00     0.000 A 
HETATM    5  C   LIG     1      17.340  33.692  14.573  1.00  0.00     0.002 A 
HETATM    6  C   LIG     1      16.602  33.420  15.729  1.00  0.00     0.029 A 
ENDROOT
BRANCH   1   7
HETATM    7  N   LIG     1      14.886  32.101  16.938  1.00  0.00    -0.382 N 
BRANCH   7   8
HETATM    8  C   LIG     1      13.814  31.091  16.930  1.00  0.00     0.118 C 
HETATM    9  C   LIG     1      12.455  31.744  16.694  1.00  0.00     0.026 C 
ENDBRANCH   7   8
BRANCH   7  10
HETATM   10  C   LIG     1      15.179  32.817  18.190  1.00  0.00     0.118 C 
HETATM   11  C   LIG     1      15.068  31.884  19.394  1.00  0.00     0.026 C 
ENDBRANCH   7  10
ENDBRANCH   1   7
TORSDOF 3
ENDMDL
MODEL 17
REMARK VINA RESULT:      -4.7      9.557     11.240
REMARK  3 active torsions:
REMARK  status: ('A' for Active; 'I' for Inactive)
REMARK    1  A    between atoms: C_2  and  N_3 
REMARK    2  A    between atoms: N_3  and  C_10 
REMARK    3  A    between atoms: N_3  and  C_4 
ROOT
HETATM    1  C   LIG     1      15.878  32.103  14.606  1.00  0.00     0.030 A 
HETATM    2  C   LIG     1      16.404  32.974  15.579  1.00  0.00     0.029 A 
HETATM    3  C   LIG     1      17.367  33.927  15.233  1.00  0.00     0.002 A 
HETATM    4  C   LIG     1      17.817  34.023  13.915  1.00  0.00     0.000 A 
HETATM    5  C   LIG     1      17.306  33.164  12.940  1.00  0.00     0.002 A 
HETATM    6  C   LIG     1      16.343  32.209  13.281  1.00  0.00     0.029 A 
ENDROOT
BRANCH   1   7
HETATM    7  N   LIG     1      14.873  31.122  14.955  1.00  0.00    -0.382 N 
BRANCH   7   8
HETATM    8  C   LIG     1      14.478  30.073  13.999  1.00  0.00     0.118 C 
HETATM    9  C   LIG     1      15.428  28.882  14.078  1.00  0.00     0.026 C 
ENDBRANCH   7   8
BRANCH   7  10
HETATM   10  C   LIG     1      14.229  31.158  16.278  1.00  0.00     0.118 C 
HETATM   11  C   LIG     1      12.755  30.772  16.180  1.00  0.00     0.026 C 
ENDBRANCH   7  10
ENDBRANCH   1   7
TORSDOF 3
ENDMDL
MODEL 18
REMARK VINA RESULT:      -4.5      9.207     11.795
REMARK  3 active torsions:
REMARK  status: ('A' for Active; 'I' for Inactive)
REMARK    1  A    between atoms: C_2  and  N_3 
REMARK    2  A    between atoms: N_3  and  C_10 
REMARK    3  A    between atoms: N_3  and  C_4 
ROOT
HETATM    1  C   LIG     1      14.378  30.606  15.140  1.00  0.00     0.030 A 
HETATM    2  C   LIG     1      13.547  30.828  16.254  1.00  0.00     0.029 A 
HETATM    3  C   LIG     1      13.797  31.892  17.126  1.00  0.00     0.002 A 
HETATM    4  C   LIG     1      14.878  32.745  16.900  1.00  0.00     0.000 A 
HETATM    5  C   LIG     1      15.713  32.535  15.800  1.00  0.00     0.002 A 
HETATM    6  C   LIG     1      15.468  31.472  14.925  1.00  0.00     0.029 A 
ENDROOT
BRANCH   1   7
HETATM    7  N   LIG     1      14.119  29.512  14.228  1.00  0.00    -0.382 N 
BRANCH   7   8
HETATM    8  C   LIG     1      15.188  28.978  13.367  1.00  0.00     0.118 C 
HETATM    9  C   LIG     1      15.941  27.854  14.072  1.00  0.00     0.026 C 
ENDBRANCH   7   8
BRANCH   7  10
HETATM   10  C   LIG     1      12.775  28.917  14.147  1.00  0.00     0.118 C 
HETATM   11  C   LIG     1      12.844  27.475  13.650  1.00  0.00     0.026 C 
ENDBRANCH   7  10
ENDBRANCH   1   7
TORSDOF 3
ENDMDL
MODEL 19
REMARK VINA RESULT:      -4.3      7.677     10.280
REMARK  3 active torsions:
REMARK  status: ('A' for Active; 'I' for Inactive)
REMARK    1  A    between atoms: C_2  and  N_3 
REMARK    2  A    between atoms: N_3  and  C_10 
REMARK    3  A    between atoms: N_3  and  C_4 
ROOT
HETATM    1  C   LIG     1      15.502  32.496  15.826  1.00  0.00     0.030 A 
HETATM    2  C   LIG     1      16.512  33.472  15.734  1.00  0.00     0.029 A 
HETATM    3  C   LIG     1      17.270  33.600  14.566  1.00  0.00     0.002 A 
HETATM    4  C   LIG     1      17.032  32.759  13.479  1.00  0.00     0.000 A 
HETATM    5  C   LIG     1      16.035  31.784  13.557  1.00  0.00     0.002 A 
HETATM    6  C   LIG     1      15.274  31.650  14.723  1.00  0.00     0.029 A 
ENDROOT
BRANCH   1   7
HETATM    7  N   LIG     1      14.707  32.364  17.029  1.00  0.00    -0.382 N 
BRANCH   7   8
HETATM    8  C   LIG     1      15.316  32.541  18.359  1.00  0.00     0.118 C 
HETATM    9  C   LIG     1      14.704  31.575  19.368  1.00  0.00     0.026 C 
ENDBRANCH   7   8
BRANCH   7  10
HETATM   10  C   LIG     1      13.273  32.049  16.939  1.00  0.00     0.118 C 
HETATM   11  C   LIG     1      13.054  30.647  16.374  1.00  0.00     0.026 C 
ENDBRANCH   7  10
ENDBRANCH   1   7
TORSDOF 3
ENDMDL
