MODEL 1
REMARK VINA RESULT:      -9.4      0.000      0.000
REMARK  5 active torsions:
REMARK  status: ('A' for Active; 'I' for Inactive)
REMARK    1  A    between atoms: C_1  and  C_2 
REMARK    2  A    between atoms: C_2  and  N_3 
REMARK    3  A    between atoms: N_3  and  C_10 
REMARK    4  A    between atoms: N_3  and  C_4 
REMARK    5  A    between atoms: C_10  and  C_11 
ROOT
HETATM    1  N   LIG     1      16.744  35.848  21.738  1.00  0.00    -0.369 N 
ENDROOT
BRANCH   1   2
HETATM    2  C   LIG     1      15.375  35.677  21.237  1.00  0.00     0.201 C 
BRANCH   2   3
HETATM    3  C   LIG     1      15.190  34.288  20.711  1.00  0.00     0.112 A 
HETATM    4  N   LIG     1      14.369  33.324  21.335  1.00  0.00    -0.376 N 
HETATM    5  C   LIG     1      14.378  32.138  20.502  1.00  0.00     0.143 A 
HETATM    6  H   LIG     1      13.833  33.449  22.223  1.00  0.00     0.160 HD
HETATM    7  C   LIG     1      15.300  32.518  19.332  1.00  0.00     0.170 A 
HETATM    8  N   LIG     1      15.710  33.892  19.600  1.00  0.00    -0.274 NA
ENDBRANCH   2   3
ENDBRANCH   1   2
BRANCH   1   9
HETATM    9  C   LIG     1      17.252  34.952  22.788  1.00  0.00     0.162 C 
BRANCH   9  10
HETATM   10  C   LIG     1      17.393  35.697  24.089  1.00  0.00    -0.040 A 
HETATM   11  C   LIG     1      17.081  37.064  24.168  1.00  0.00     0.009 A 
HETATM   12  C   LIG     1      17.237  37.752  25.376  1.00  0.00     0.001 A 
HETATM   13  C   LIG     1      17.704  37.082  26.510  1.00  0.00     0.000 A 
HETATM   14  C   LIG     1      18.018  35.721  26.438  1.00  0.00     0.001 A 
HETATM   15  C   LIG     1      17.864  35.030  25.232  1.00  0.00     0.009 A 
ENDBRANCH   9  10
ENDBRANCH   1   9
BRANCH   1  16
HETATM   16  C   LIG     1      17.594  36.876  21.191  1.00  0.00     0.030 A 
HETATM   17  C   LIG     1      17.515  38.193  21.677  1.00  0.00     0.029 A 
HETATM   18  C   LIG     1      18.320  39.196  21.130  1.00  0.00     0.002 A 
HETATM   19  C   LIG     1      19.207  38.894  20.093  1.00  0.00     0.000 A 
HETATM   20  C   LIG     1      19.290  37.589  19.601  1.00  0.00     0.002 A 
HETATM   21  C   LIG     1      18.485  36.583  20.146  1.00  0.00     0.029 A 
ENDBRANCH   1  16
TORSDOF 5
ENDMDL
MODEL 2
REMARK VINA RESULT:      -9.2      0.343      1.777
REMARK  5 active torsions:
REMARK  status: ('A' for Active; 'I' for Inactive)
REMARK    1  A    between atoms: C_1  and  C_2 
REMARK    2  A    between atoms: C_2  and  N_3 
REMARK    3  A    between atoms: N_3  and  C_10 
REMARK    4  A    between atoms: N_3  and  C_4 
REMARK    5  A    between atoms: C_10  and  C_11 
ROOT
HETATM    1  N   LIG     1      16.737  35.889  21.705  1.00  0.00    -0.369 N 
ENDROOT
BRANCH   1   2
HETATM    2  C   LIG     1      15.351  35.752  21.241  1.00  0.00     0.201 C 
BRANCH   2   3
HETATM    3  C   LIG     1      15.196  34.492  20.450  1.00  0.00     0.112 A 
HETATM    4  N   LIG     1      15.481  34.401  19.070  1.00  0.00    -0.376 N 
HETATM    5  C   LIG     1      15.290  33.019  18.676  1.00  0.00     0.143 A 
HETATM    6  H   LIG     1      15.795  35.181  18.450  1.00  0.00     0.160 HD
HETATM    7  C   LIG     1      14.856  32.323  19.975  1.00  0.00     0.170 A 
HETATM    8  N   LIG     1      14.863  33.370  20.990  1.00  0.00    -0.274 NA
ENDBRANCH   2   3
ENDBRANCH   1   2
BRANCH   1   9
HETATM    9  C   LIG     1      17.254  34.975  22.735  1.00  0.00     0.162 C 
BRANCH   9  10
HETATM   10  C   LIG     1      17.415  35.699  24.046  1.00  0.00    -0.040 A 
HETATM   11  C   LIG     1      17.840  35.011  25.195  1.00  0.00     0.009 A 
HETATM   12  C   LIG     1      17.966  35.687  26.413  1.00  0.00     0.001 A 
HETATM   13  C   LIG     1      17.668  37.051  26.491  1.00  0.00     0.000 A 
HETATM   14  C   LIG     1      17.244  37.741  25.352  1.00  0.00     0.001 A 
HETATM   15  C   LIG     1      17.117  37.068  24.133  1.00  0.00     0.009 A 
ENDBRANCH   9  10
ENDBRANCH   1   9
BRANCH   1  16
HETATM   16  C   LIG     1      17.595  36.901  21.141  1.00  0.00     0.030 A 
HETATM   17  C   LIG     1      18.491  36.574  20.108  1.00  0.00     0.029 A 
HETATM   18  C   LIG     1      19.342  37.548  19.578  1.00  0.00     0.002 A 
HETATM   19  C   LIG     1      19.308  38.853  20.075  1.00  0.00     0.000 A 
HETATM   20  C   LIG     1      18.423  39.186  21.105  1.00  0.00     0.002 A 
HETATM   21  C   LIG     1      17.571  38.215  21.638  1.00  0.00     0.029 A 
ENDBRANCH   1  16
TORSDOF 5
ENDMDL
MODEL 3
REMARK VINA RESULT:      -9.1      0.806      4.461
REMARK  5 active torsions:
REMARK  status: ('A' for Active; 'I' for Inactive)
REMARK    1  A    between atoms: C_1  and  C_2 
REMARK    2  A    between atoms: C_2  and  N_3 
REMARK    3  A    between atoms: N_3  and  C_10 
REMARK    4  A    between atoms: N_3  and  C_4 
REMARK    5  A    between atoms: C_10  and  C_11 
ROOT
HETATM    1  N   LIG     1      16.888  35.883  22.119  1.00  0.00    -0.369 N 
ENDROOT
BRANCH   1   2
HETATM    2  C   LIG     1      15.517  35.881  21.595  1.00  0.00     0.201 C 
BRANCH   2   3
HETATM    3  C   LIG     1      15.333  34.744  20.641  1.00  0.00     0.112 A 
HETATM    4  N   LIG     1      15.485  34.870  19.243  1.00  0.00    -0.376 N 
HETATM    5  C   LIG     1      15.308  33.553  18.664  1.00  0.00     0.143 A 
HETATM    6  H   LIG     1      15.707  35.748  18.722  1.00  0.00     0.160 HD
HETATM    7  C   LIG     1      15.030  32.653  19.879  1.00  0.00     0.170 A 
HETATM    8  N   LIG     1      15.097  33.539  21.035  1.00  0.00    -0.274 NA
ENDBRANCH   2   3
ENDBRANCH   1   2
BRANCH   1   9
HETATM    9  C   LIG     1      18.021  35.732  21.193  1.00  0.00     0.162 C 
BRANCH   9  10
HETATM   10  C   LIG     1      18.332  37.045  20.526  1.00  0.00    -0.040 A 
HETATM   11  C   LIG     1      18.701  37.089  19.170  1.00  0.00     0.009 A 
HETATM   12  C   LIG     1      19.010  38.311  18.565  1.00  0.00     0.001 A 
HETATM   13  C   LIG     1      18.953  39.495  19.307  1.00  0.00     0.000 A 
HETATM   14  C   LIG     1      18.588  39.459  20.655  1.00  0.00     0.001 A 
HETATM   15  C   LIG     1      18.279  38.238  21.264  1.00  0.00     0.009 A 
ENDBRANCH   9  10
ENDBRANCH   1   9
BRANCH   1  16
HETATM   16  C   LIG     1      17.127  36.052  23.530  1.00  0.00     0.030 A 
HETATM   17  C   LIG     1      17.169  37.340  24.092  1.00  0.00     0.029 A 
HETATM   18  C   LIG     1      17.425  37.506  25.456  1.00  0.00     0.002 A 
HETATM   19  C   LIG     1      17.644  36.391  26.269  1.00  0.00     0.000 A 
HETATM   20  C   LIG     1      17.609  35.107  25.719  1.00  0.00     0.002 A 
HETATM   21  C   LIG     1      17.353  34.937  24.355  1.00  0.00     0.029 A 
ENDBRANCH   1  16
TORSDOF 5
ENDMDL
MODEL 4
REMARK VINA RESULT:      -8.4      1.401      5.726
REMARK  5 active torsions:
REMARK  status: ('A' for Active; 'I' for Inactive)
REMARK    1  A    between atoms: C_1  and  C_2 
REMARK    2  A    between atoms: C_2  and  N_3 
REMARK    3  A    between atoms: N_3  and  C_10 
REMARK    4  A    between atoms: N_3  and  C_4 
REMARK    5  A    between atoms: C_10  and  C_11 
ROOT
HETATM    1  N   LIG     1      16.910  35.894  21.904  1.00  0.00    -0.369 N 
ENDROOT
BRANCH   1   2
HETATM    2  C   LIG     1      18.068  35.725  21.017  1.00  0.00     0.201 C 
BRANCH   2   3
HETATM    3  C   LIG     1      18.363  37.008  20.307  1.00  0.00     0.112 A 
HETATM    4  N   LIG     1      18.424  38.260  20.958  1.00  0.00    -0.376 N 
HETATM    5  C   LIG     1      18.808  39.247  19.969  1.00  0.00     0.143 A 
HETATM    6  H   LIG     1      18.247  38.439  21.972  1.00  0.00     0.160 HD
HETATM    7  C   LIG     1      18.955  38.432  18.674  1.00  0.00     0.170 A 
HETATM    8  N   LIG     1      18.663  37.055  19.055  1.00  0.00    -0.274 NA
ENDBRANCH   2   3
ENDBRANCH   1   2
BRANCH   1   9
HETATM    9  C   LIG     1      15.551  35.852  21.344  1.00  0.00     0.162 C 
BRANCH   9  10
HETATM   10  C   LIG     1      15.420  34.711  20.370  1.00  0.00    -0.040 A 
HETATM   11  C   LIG     1      15.446  34.946  18.985  1.00  0.00     0.009 A 
HETATM   12  C   LIG     1      15.302  33.882  18.089  1.00  0.00     0.001 A 
HETATM   13  C   LIG     1      15.129  32.580  18.567  1.00  0.00     0.000 A 
HETATM   14  C   LIG     1      15.101  32.339  19.944  1.00  0.00     0.001 A 
HETATM   15  C   LIG     1      15.245  33.400  20.843  1.00  0.00     0.009 A 
ENDBRANCH   9  10
ENDBRANCH   1   9
BRANCH   1  16
HETATM   16  C   LIG     1      17.102  36.082  23.320  1.00  0.00     0.030 A 
HETATM   17  C   LIG     1      17.132  37.377  23.866  1.00  0.00     0.029 A 
HETATM   18  C   LIG     1      17.344  37.561  25.235  1.00  0.00     0.002 A 
HETATM   19  C   LIG     1      17.529  36.457  26.070  1.00  0.00     0.000 A 
HETATM   20  C   LIG     1      17.505  35.165  25.536  1.00  0.00     0.002 A 
HETATM   21  C   LIG     1      17.294  34.977  24.167  1.00  0.00     0.029 A 
ENDBRANCH   1  16
TORSDOF 5
ENDMDL
MODEL 5
REMARK VINA RESULT:      -8.2      1.533      4.594
REMARK  5 active torsions:
REMARK  status: ('A' for Active; 'I' for Inactive)
REMARK    1  A    between atoms: C_1  and  C_2 
REMARK    2  A    between atoms: C_2  and  N_3 
REMARK    3  A    between atoms: N_3  and  C_10 
REMARK    4  A    between atoms: N_3  and  C_4 
REMARK    5  A    between atoms: C_10  and  C_11 
ROOT
HETATM    1  N   LIG     1      16.818  35.782  21.100  1.00  0.00    -0.369 N 
ENDROOT
BRANCH   1   2
HETATM    2  C   LIG     1      18.259  36.030  20.964  1.00  0.00     0.201 C 
BRANCH   2   3
HETATM    3  C   LIG     1      18.491  37.336  20.272  1.00  0.00     0.112 A 
HETATM    4  N   LIG     1      18.602  38.568  20.954  1.00  0.00    -0.376 N 
HETATM    5  C   LIG     1      18.901  39.587  19.967  1.00  0.00     0.143 A 
HETATM    6  H   LIG     1      18.510  38.716  21.984  1.00  0.00     0.160 HD
HETATM    7  C   LIG     1      18.943  38.813  18.640  1.00  0.00     0.170 A 
HETATM    8  N   LIG     1      18.686  37.423  19.001  1.00  0.00    -0.274 NA
ENDBRANCH   2   3
ENDBRANCH   1   2
BRANCH   1   9
HETATM    9  C   LIG     1      16.040  36.535  22.094  1.00  0.00     0.162 C 
BRANCH   9  10
HETATM   10  C   LIG     1      16.688  36.440  23.450  1.00  0.00    -0.040 A 
HETATM   11  C   LIG     1      17.075  37.601  24.140  1.00  0.00     0.009 A 
HETATM   12  C   LIG     1      17.698  37.502  25.389  1.00  0.00     0.001 A 
HETATM   13  C   LIG     1      17.938  36.247  25.954  1.00  0.00     0.000 A 
HETATM   14  C   LIG     1      17.557  35.088  25.272  1.00  0.00     0.001 A 
HETATM   15  C   LIG     1      16.935  35.183  24.024  1.00  0.00     0.009 A 
ENDBRANCH   9  10
ENDBRANCH   1   9
BRANCH   1  16
HETATM   16  C   LIG     1      16.165  34.818  20.250  1.00  0.00     0.030 A 
HETATM   17  C   LIG     1      15.863  33.534  20.737  1.00  0.00     0.029 A 
HETATM   18  C   LIG     1      15.253  32.590  19.906  1.00  0.00     0.002 A 
HETATM   19  C   LIG     1      14.941  32.918  18.584  1.00  0.00     0.000 A 
HETATM   20  C   LIG     1      15.240  34.191  18.090  1.00  0.00     0.002 A 
HETATM   21  C   LIG     1      15.851  35.137  18.918  1.00  0.00     0.029 A 
ENDBRANCH   1  16
TORSDOF 5
ENDMDL
MODEL 6
REMARK VINA RESULT:      -7.9      1.403      5.569
REMARK  5 active torsions:
REMARK  status: ('A' for Active; 'I' for Inactive)
REMARK    1  A    between atoms: C_1  and  C_2 
REMARK    2  A    between atoms: C_2  and  N_3 
REMARK    3  A    between atoms: N_3  and  C_10 
REMARK    4  A    between atoms: N_3  and  C_4 
REMARK    5  A    between atoms: C_10  and  C_11 
ROOT
HETATM    1  N   LIG     1      16.503  35.676  21.129  1.00  0.00    -0.369 N 
ENDROOT
BRANCH   1   2
HETATM    2  C   LIG     1      15.598  36.429  22.005  1.00  0.00     0.201 C 
BRANCH   2   3
HETATM    3  C   LIG     1      16.266  36.712  23.313  1.00  0.00     0.112 A 
HETATM    4  N   LIG     1      17.003  35.746  24.034  1.00  0.00    -0.376 N 
HETATM    5  C   LIG     1      17.561  36.404  25.199  1.00  0.00     0.143 A 
HETATM    6  H   LIG     1      17.140  34.746  23.766  1.00  0.00     0.160 HD
HETATM    7  C   LIG     1      17.062  37.853  25.077  1.00  0.00     0.170 A 
HETATM    8  N   LIG     1      16.285  37.886  23.843  1.00  0.00    -0.274 NA
ENDBRANCH   2   3
ENDBRANCH   1   2
BRANCH   1   9
HETATM    9  C   LIG     1      17.954  35.905  21.211  1.00  0.00     0.162 C 
BRANCH   9  10
HETATM   10  C   LIG     1      18.331  37.157  20.464  1.00  0.00    -0.040 A 
HETATM   11  C   LIG     1      18.592  37.115  19.084  1.00  0.00     0.009 A 
HETATM   12  C   LIG     1      18.964  38.279  18.404  1.00  0.00     0.001 A 
HETATM   13  C   LIG     1      19.077  39.489  19.094  1.00  0.00     0.000 A 
HETATM   14  C   LIG     1      18.820  39.538  20.467  1.00  0.00     0.001 A 
HETATM   15  C   LIG     1      18.448  38.377  21.151  1.00  0.00     0.009 A 
ENDBRANCH   9  10
ENDBRANCH   1   9
BRANCH   1  16
HETATM   16  C   LIG     1      15.977  34.704  20.205  1.00  0.00     0.030 A 
HETATM   17  C   LIG     1      15.769  33.376  20.617  1.00  0.00     0.029 A 
HETATM   18  C   LIG     1      15.283  32.425  19.714  1.00  0.00     0.002 A 
HETATM   19  C   LIG     1      15.004  32.790  18.395  1.00  0.00     0.000 A 
HETATM   20  C   LIG     1      15.212  34.107  17.975  1.00  0.00     0.002 A 
HETATM   21  C   LIG     1      15.699  35.060  18.874  1.00  0.00     0.029 A 
ENDBRANCH   1  16
TORSDOF 5
ENDMDL
MODEL 7
REMARK VINA RESULT:      -7.5      1.247      4.868
REMARK  5 active torsions:
REMARK  status: ('A' for Active; 'I' for Inactive)
REMARK    1  A    between atoms: C_1  and  C_2 
REMARK    2  A    between atoms: C_2  and  N_3 
REMARK    3  A    between atoms: N_3  and  C_10 
REMARK    4  A    between atoms: N_3  and  C_4 
REMARK    5  A    between atoms: C_10  and  C_11 
ROOT
HETATM    1  N   LIG     1      16.674  37.744  23.169  1.00  0.00    -0.369 N 
ENDROOT
BRANCH   1   2
HETATM    2  C   LIG     1      15.383  37.373  22.575  1.00  0.00     0.201 C 
BRANCH   2   3
HETATM    3  C   LIG     1      15.516  36.090  21.817  1.00  0.00     0.112 A 
HETATM    4  N   LIG     1      14.616  35.689  20.806  1.00  0.00    -0.376 N 
HETATM    5  C   LIG     1      15.110  34.443  20.252  1.00  0.00     0.143 A 
HETATM    6  H   LIG     1      13.763  36.205  20.496  1.00  0.00     0.160 HD
HETATM    7  C   LIG     1      16.388  34.164  21.059  1.00  0.00     0.170 A 
HETATM    8  N   LIG     1      16.513  35.289  21.979  1.00  0.00    -0.274 NA
ENDBRANCH   2   3
ENDBRANCH   1   2
BRANCH   1   9
HETATM    9  C   LIG     1      17.396  38.921  22.663  1.00  0.00     0.162 C 
BRANCH   9  10
HETATM   10  C   LIG     1      18.130  38.581  21.393  1.00  0.00    -0.040 A 
HETATM   11  C   LIG     1      18.205  37.251  20.945  1.00  0.00     0.009 A 
HETATM   12  C   LIG     1      18.908  36.941  19.776  1.00  0.00     0.001 A 
HETATM   13  C   LIG     1      19.540  37.954  19.049  1.00  0.00     0.000 A 
HETATM   14  C   LIG     1      19.470  39.279  19.489  1.00  0.00     0.001 A 
HETATM   15  C   LIG     1      18.768  39.592  20.657  1.00  0.00     0.009 A 
ENDBRANCH   9  10
ENDBRANCH   1   9
BRANCH   1  16
HETATM   16  C   LIG     1      17.223  36.972  24.255  1.00  0.00     0.030 A 
HETATM   17  C   LIG     1      17.023  35.581  24.306  1.00  0.00     0.029 A 
HETATM   18  C   LIG     1      17.533  34.834  25.373  1.00  0.00     0.002 A 
HETATM   19  C   LIG     1      18.242  35.468  26.396  1.00  0.00     0.000 A 
HETATM   20  C   LIG     1      18.442  36.851  26.355  1.00  0.00     0.002 A 
HETATM   21  C   LIG     1      17.933  37.601  25.291  1.00  0.00     0.029 A 
ENDBRANCH   1  16
TORSDOF 5
ENDMDL
MODEL 8
REMARK VINA RESULT:      -7.5      4.835      8.762
REMARK  5 active torsions:
REMARK  status: ('A' for Active; 'I' for Inactive)
REMARK    1  A    between atoms: C_1  and  C_2 
REMARK    2  A    between atoms: C_2  and  N_3 
REMARK    3  A    between atoms: N_3  and  C_10 
REMARK    4  A    between atoms: N_3  and  C_4 
REMARK    5  A    between atoms: C_10  and  C_11 
ROOT
HETATM    1  N   LIG     1      15.350  31.877  15.719  1.00  0.00    -0.369 N 
ENDROOT
BRANCH   1   2
HETATM    2  C   LIG     1      16.815  31.978  15.689  1.00  0.00     0.201 C 
BRANCH   2   3
HETATM    3  C   LIG     1      17.241  32.958  14.642  1.00  0.00     0.112 A 
HETATM    4  N   LIG     1      17.535  34.311  14.919  1.00  0.00    -0.376 N 
HETATM    5  C   LIG     1      17.984  34.921  13.683  1.00  0.00     0.143 A 
HETATM    6  H   LIG     1      17.465  34.782  15.849  1.00  0.00     0.160 HD
HETATM    7  C   LIG     1      17.910  33.776  12.660  1.00  0.00     0.170 A 
HETATM    8  N   LIG     1      17.447  32.618  13.417  1.00  0.00    -0.274 NA
ENDBRANCH   2   3
ENDBRANCH   1   2
BRANCH   1   9
HETATM    9  C   LIG     1      14.557  32.966  16.308  1.00  0.00     0.162 C 
BRANCH   9  10
HETATM   10  C   LIG     1      14.948  33.181  17.746  1.00  0.00    -0.040 A 
HETATM   11  C   LIG     1      14.879  32.126  18.672  1.00  0.00     0.009 A 
HETATM   12  C   LIG     1      15.223  32.342  20.010  1.00  0.00     0.001 A 
HETATM   13  C   LIG     1      15.637  33.608  20.433  1.00  0.00     0.000 A 
HETATM   14  C   LIG     1      15.707  34.663  19.518  1.00  0.00     0.001 A 
HETATM   15  C   LIG     1      15.364  34.451  18.179  1.00  0.00     0.009 A 
ENDBRANCH   9  10
ENDBRANCH   1   9
BRANCH   1  16
HETATM   16  C   LIG     1      14.690  30.726  15.155  1.00  0.00     0.030 A 
HETATM   17  C   LIG     1      15.416  29.801  14.384  1.00  0.00     0.029 A 
HETATM   18  C   LIG     1      14.772  28.698  13.815  1.00  0.00     0.002 A 
HETATM   19  C   LIG     1      13.401  28.511  14.009  1.00  0.00     0.000 A 
HETATM   20  C   LIG     1      12.671  29.428  14.771  1.00  0.00     0.002 A 
HETATM   21  C   LIG     1      13.311  30.532  15.340  1.00  0.00     0.029 A 
ENDBRANCH   1  16
TORSDOF 5
ENDMDL
MODEL 9
REMARK VINA RESULT:      -6.8      5.137      9.616
REMARK  5 active torsions:
REMARK  status: ('A' for Active; 'I' for Inactive)
REMARK    1  A    between atoms: C_1  and  C_2 
REMARK    2  A    between atoms: C_2  and  N_3 
REMARK    3  A    between atoms: N_3  and  C_10 
REMARK    4  A    between atoms: N_3  and  C_4 
REMARK    5  A    between atoms: C_10  and  C_11 
ROOT
HETATM    1  N   LIG     1      15.234  31.585  15.754  1.00  0.00    -0.369 N 
ENDROOT
BRANCH   1   2
HETATM    2  C   LIG     1      14.387  32.518  16.507  1.00  0.00     0.201 C 
BRANCH   2   3
HETATM    3  C   LIG     1      14.707  32.438  17.966  1.00  0.00     0.112 A 
HETATM    4  N   LIG     1      15.334  33.482  18.682  1.00  0.00    -0.376 N 
HETATM    5  C   LIG     1      15.406  33.076  20.072  1.00  0.00     0.143 A 
HETATM    6  H   LIG     1      15.665  34.391  18.288  1.00  0.00     0.160 HD
HETATM    7  C   LIG     1      14.760  31.681  20.080  1.00  0.00     0.170 A 
HETATM    8  N   LIG     1      14.362  31.436  18.699  1.00  0.00    -0.274 NA
ENDBRANCH   2   3
ENDBRANCH   1   2
BRANCH   1   9
HETATM    9  C   LIG     1      16.690  31.786  15.723  1.00  0.00     0.162 C 
BRANCH   9  10
HETATM   10  C   LIG     1      17.052  32.845  14.716  1.00  0.00    -0.040 A 
HETATM   11  C   LIG     1      17.168  32.526  13.352  1.00  0.00     0.009 A 
HETATM   12  C   LIG     1      17.527  33.512  12.427  1.00  0.00     0.001 A 
HETATM   13  C   LIG     1      17.771  34.820  12.856  1.00  0.00     0.000 A 
HETATM   14  C   LIG     1      17.659  35.144  14.211  1.00  0.00     0.001 A 
HETATM   15  C   LIG     1      17.300  34.161  15.139  1.00  0.00     0.009 A 
ENDBRANCH   9  10
ENDBRANCH   1   9
BRANCH   1  16
HETATM   16  C   LIG     1      14.644  30.465  15.064  1.00  0.00     0.030 A 
HETATM   17  C   LIG     1      13.253  30.265  15.097  1.00  0.00     0.029 A 
HETATM   18  C   LIG     1      12.683  29.165  14.450  1.00  0.00     0.002 A 
HETATM   19  C   LIG     1      13.495  28.255  13.769  1.00  0.00     0.000 A 
HETATM   20  C   LIG     1      14.879  28.443  13.734  1.00  0.00     0.002 A 
HETATM   21  C   LIG     1      15.453  29.541  14.380  1.00  0.00     0.029 A 
ENDBRANCH   1  16
TORSDOF 5
ENDMDL
MODEL 10
REMARK VINA RESULT:      -6.6      5.098      9.475
REMARK  5 active torsions:
REMARK  status: ('A' for Active; 'I' for Inactive)
REMARK    1  A    between atoms: C_1  and  C_2 
REMARK    2  A    between atoms: C_2  and  N_3 
REMARK    3  A    between atoms: N_3  and  C_10 
REMARK    4  A    between atoms: N_3  and  C_4 
REMARK    5  A    between atoms: C_10  and  C_11 
ROOT
HETATM    1  N   LIG     1      15.767  32.370  15.748  1.00  0.00    -0.369 N 
ENDROOT
BRANCH   1   2
HETATM    2  C   LIG     1      15.109  33.498  16.419  1.00  0.00     0.201 C 
BRANCH   2   3
HETATM    3  C   LIG     1      15.279  33.383  17.901  1.00  0.00     0.112 A 
HETATM    4  N   LIG     1      15.567  34.484  18.738  1.00  0.00    -0.376 N 
HETATM    5  C   LIG     1      15.580  34.001  20.104  1.00  0.00     0.143 A 
HETATM    6  H   LIG     1      15.721  35.470  18.431  1.00  0.00     0.160 HD
HETATM    7  C   LIG     1      15.275  32.501  19.967  1.00  0.00     0.170 A 
HETATM    8  N   LIG     1      15.096  32.277  18.537  1.00  0.00    -0.274 NA
ENDBRANCH   2   3
ENDBRANCH   1   2
BRANCH   1   9
HETATM    9  C   LIG     1      17.233  32.352  15.623  1.00  0.00     0.162 C 
BRANCH   9  10
HETATM   10  C   LIG     1      17.663  33.091  14.383  1.00  0.00    -0.040 A 
HETATM   11  C   LIG     1      16.709  33.584  13.477  1.00  0.00     0.009 A 
HETATM   12  C   LIG     1      17.119  34.249  12.317  1.00  0.00     0.001 A 
HETATM   13  C   LIG     1      18.480  34.427  12.055  1.00  0.00     0.000 A 
HETATM   14  C   LIG     1      19.435  33.939  12.952  1.00  0.00     0.001 A 
HETATM   15  C   LIG     1      19.029  33.273  14.112  1.00  0.00     0.009 A 
ENDBRANCH   9  10
ENDBRANCH   1   9
BRANCH   1  16
HETATM   16  C   LIG     1      14.984  31.277  15.230  1.00  0.00     0.030 A 
HETATM   17  C   LIG     1      13.647  31.110  15.632  1.00  0.00     0.029 A 
HETATM   18  C   LIG     1      12.895  30.035  15.151  1.00  0.00     0.002 A 
HETATM   19  C   LIG     1      13.470  29.116  14.269  1.00  0.00     0.000 A 
HETATM   20  C   LIG     1      14.799  29.271  13.867  1.00  0.00     0.002 A 
HETATM   21  C   LIG     1      15.555  30.345  14.347  1.00  0.00     0.029 A 
ENDBRANCH   1  16
TORSDOF 5
ENDMDL
