REMARK  5 active torsions:
REMARK  status: ('A' for Active; 'I' for Inactive)
REMARK    1  A    between atoms: C_1  and  C_2 
REMARK    2  A    between atoms: C_2  and  N_3 
REMARK    3  A    between atoms: N_3  and  C_10 
REMARK    4  A    between atoms: N_3  and  C_4 
REMARK    5  A    between atoms: C_10  and  C_11 
ROOT
HETATM    1  N   LIG     1      -0.349   0.006  -0.299  1.00  0.00    -0.369 N 
ENDROOT
BRANCH   1   2
HETATM    2  C   LIG     1      -1.310  -0.362  -1.346  1.00  0.00     0.201 C 
BRANCH   2   3
HETATM    3  C   LIG     1      -2.494  -1.046  -0.739  1.00  0.00     0.112 A 
HETATM    4  N   LIG     1      -2.678  -2.446  -0.761  1.00  0.00    -0.376 N 
HETATM    5  C   LIG     1      -3.885  -2.739  -0.014  1.00  0.00     0.143 A 
HETATM    6  H   LIG     1      -2.048  -3.146  -1.213  1.00  0.00     0.160 HD
HETATM    7  C   LIG     1      -4.383  -1.356   0.436  1.00  0.00     0.170 A 
HETATM    8  N   LIG     1      -3.400  -0.410  -0.079  1.00  0.00    -0.274 NA
ENDBRANCH   2   3
ENDBRANCH   1   2
BRANCH   1   9
HETATM    9  C   LIG     1       0.375  -1.048   0.428  1.00  0.00     0.162 C 
BRANCH   9  10
HETATM   10  C   LIG     1       1.861  -0.882   0.250  1.00  0.00    -0.040 A 
HETATM   11  C   LIG     1       2.677  -0.532   1.339  1.00  0.00     0.009 A 
HETATM   12  C   LIG     1       4.053  -0.358   1.159  1.00  0.00     0.001 A 
HETATM   13  C   LIG     1       4.622  -0.531  -0.106  1.00  0.00     0.000 A 
HETATM   14  C   LIG     1       3.816  -0.878  -1.194  1.00  0.00     0.001 A 
HETATM   15  C   LIG     1       2.440  -1.053  -1.018  1.00  0.00     0.009 A 
ENDBRANCH   9  10
ENDBRANCH   1   9
BRANCH   1  16
HETATM   16  C   LIG     1      -0.100   1.393   0.003  1.00  0.00     0.030 A 
HETATM   17  C   LIG     1       0.238   2.292  -1.024  1.00  0.00     0.029 A 
HETATM   18  C   LIG     1       0.505   3.632  -0.729  1.00  0.00     0.002 A 
HETATM   19  C   LIG     1       0.440   4.085   0.591  1.00  0.00     0.000 A 
HETATM   20  C   LIG     1       0.109   3.198   1.619  1.00  0.00     0.002 A 
HETATM   21  C   LIG     1      -0.158   1.857   1.328  1.00  0.00     0.029 A 
ENDBRANCH   1  16
TORSDOF 5
