MODEL 1
REMARK VINA RESULT:      -8.6      0.000      0.000
REMARK  6 active torsions:
REMARK  status: ('A' for Active; 'I' for Inactive)
REMARK    1  A    between atoms: N_2  and  C_3 
REMARK    2  A    between atoms: C_3  and  C_4 
REMARK    3  A    between atoms: C_4  and  N_5 
REMARK    4  A    between atoms: N_5  and  C_12 
REMARK    5  A    between atoms: N_5  and  C_6 
REMARK    6  A    between atoms: C_12  and  C_13 
ROOT
HETATM    1  N   LIG     1      16.757  35.956  22.803  1.00  0.00    -0.360 N 
ENDROOT
BRANCH   1   2
HETATM    2  C   LIG     1      16.497  34.630  22.217  1.00  0.00     0.155 C 
BRANCH   2   3
HETATM    3  C   LIG     1      15.418  34.737  21.122  1.00  0.00     0.291 C 
BRANCH   3   4
HETATM    4  N   LIG     1      15.705  33.953  19.900  1.00  0.00     0.081 N 
HETATM    5  C   LIG     1      15.307  34.644  18.664  1.00  0.00     0.309 C 
HETATM    6  C   LIG     1      15.154  32.590  19.950  1.00  0.00     0.309 C 
ENDBRANCH   3   4
ENDBRANCH   2   3
ENDBRANCH   1   2
BRANCH   1   7
HETATM    7  C   LIG     1      16.452  37.162  22.012  1.00  0.00     0.163 C 
BRANCH   7   8
HETATM    8  C   LIG     1      17.648  37.577  21.195  1.00  0.00    -0.040 A 
HETATM    9  C   LIG     1      18.197  38.861  21.355  1.00  0.00     0.009 A 
HETATM   10  C   LIG     1      19.307  39.252  20.601  1.00  0.00     0.001 A 
HETATM   11  C   LIG     1      19.876  38.368  19.680  1.00  0.00     0.000 A 
HETATM   12  C   LIG     1      19.331  37.092  19.509  1.00  0.00     0.001 A 
HETATM   13  C   LIG     1      18.219  36.697  20.260  1.00  0.00     0.009 A 
ENDBRANCH   7   8
ENDBRANCH   1   7
BRANCH   1  14
HETATM   14  C   LIG     1      17.259  36.045  24.161  1.00  0.00     0.125 A 
HETATM   15  C   LIG     1      17.504  34.896  24.939  1.00  0.00     0.050 A 
HETATM   16  C   LIG     1      17.991  35.034  26.241  1.00  0.00     0.005 A 
HETATM   17  C   LIG     1      18.225  36.304  26.765  1.00  0.00     0.019 A 
HETATM   18  C   LIG     1      17.966  37.425  25.977  1.00  0.00     0.119 A 
HETATM   19  N   LIG     1      17.496  37.271  24.711  1.00  0.00    -0.244 NA
ENDBRANCH   1  14
TORSDOF 6
ENDMDL
MODEL 2
REMARK VINA RESULT:      -8.5      0.956      4.723
REMARK  6 active torsions:
REMARK  status: ('A' for Active; 'I' for Inactive)
REMARK    1  A    between atoms: N_2  and  C_3 
REMARK    2  A    between atoms: C_3  and  C_4 
REMARK    3  A    between atoms: C_4  and  N_5 
REMARK    4  A    between atoms: N_5  and  C_12 
REMARK    5  A    between atoms: N_5  and  C_6 
REMARK    6  A    between atoms: C_12  and  C_13 
ROOT
HETATM    1  N   LIG     1      17.019  36.353  22.053  1.00  0.00    -0.360 N 
ENDROOT
BRANCH   1   2
HETATM    2  C   LIG     1      16.906  34.914  21.759  1.00  0.00     0.155 C 
BRANCH   2   3
HETATM    3  C   LIG     1      15.578  34.626  21.031  1.00  0.00     0.291 C 
BRANCH   3   4
HETATM    4  N   LIG     1      15.711  33.771  19.829  1.00  0.00     0.081 N 
HETATM    5  C   LIG     1      15.299  34.449  18.590  1.00  0.00     0.309 C 
HETATM    6  C   LIG     1      15.040  32.470  19.973  1.00  0.00     0.309 C 
ENDBRANCH   3   4
ENDBRANCH   2   3
ENDBRANCH   1   2
BRANCH   1   7
HETATM    7  C   LIG     1      16.376  36.890  23.265  1.00  0.00     0.163 C 
BRANCH   7   8
HETATM    8  C   LIG     1      17.158  36.509  24.495  1.00  0.00    -0.040 A 
HETATM    9  C   LIG     1      17.895  37.484  25.189  1.00  0.00     0.009 A 
HETATM   10  C   LIG     1      18.621  37.137  26.332  1.00  0.00     0.001 A 
HETATM   11  C   LIG     1      18.622  35.815  26.788  1.00  0.00     0.000 A 
HETATM   12  C   LIG     1      17.899  34.838  26.098  1.00  0.00     0.001 A 
HETATM   13  C   LIG     1      17.171  35.181  24.954  1.00  0.00     0.009 A 
ENDBRANCH   7   8
ENDBRANCH   1   7
BRANCH   1  14
HETATM   14  C   LIG     1      17.803  37.197  21.170  1.00  0.00     0.125 A 
HETATM   15  C   LIG     1      18.044  38.555  21.461  1.00  0.00     0.050 A 
HETATM   16  C   LIG     1      18.808  39.323  20.581  1.00  0.00     0.005 A 
HETATM   17  C   LIG     1      19.322  38.748  19.420  1.00  0.00     0.019 A 
HETATM   18  C   LIG     1      19.062  37.405  19.153  1.00  0.00     0.119 A 
HETATM   19  N   LIG     1      18.319  36.671  20.022  1.00  0.00    -0.244 NA
ENDBRANCH   1  14
TORSDOF 6
ENDMDL
MODEL 3
REMARK VINA RESULT:      -7.3      1.081      5.557
REMARK  6 active torsions:
REMARK  status: ('A' for Active; 'I' for Inactive)
REMARK    1  A    between atoms: N_2  and  C_3 
REMARK    2  A    between atoms: C_3  and  C_4 
REMARK    3  A    between atoms: C_4  and  N_5 
REMARK    4  A    between atoms: N_5  and  C_12 
REMARK    5  A    between atoms: N_5  and  C_6 
REMARK    6  A    between atoms: C_12  and  C_13 
ROOT
HETATM    1  N   LIG     1      16.712  36.061  21.681  1.00  0.00    -0.360 N 
ENDROOT
BRANCH   1   2
HETATM    2  C   LIG     1      17.122  35.330  22.892  1.00  0.00     0.155 C 
BRANCH   2   3
HETATM    3  C   LIG     1      16.840  36.181  24.146  1.00  0.00     0.291 C 
BRANCH   3   4
HETATM    4  N   LIG     1      17.779  35.949  25.267  1.00  0.00     0.081 N 
HETATM    5  C   LIG     1      17.405  34.798  26.104  1.00  0.00     0.309 C 
HETATM    6  C   LIG     1      18.005  37.152  26.084  1.00  0.00     0.309 C 
ENDBRANCH   3   4
ENDBRANCH   2   3
ENDBRANCH   1   2
BRANCH   1   7
HETATM    7  C   LIG     1      15.353  35.862  21.148  1.00  0.00     0.163 C 
BRANCH   7   8
HETATM    8  C   LIG     1      15.313  34.668  20.228  1.00  0.00    -0.040 A 
HETATM    9  C   LIG     1      15.406  34.850  18.838  1.00  0.00     0.009 A 
HETATM   10  C   LIG     1      15.371  33.747  17.979  1.00  0.00     0.001 A 
HETATM   11  C   LIG     1      15.240  32.457  18.501  1.00  0.00     0.000 A 
HETATM   12  C   LIG     1      15.138  32.269  19.882  1.00  0.00     0.001 A 
HETATM   13  C   LIG     1      15.171  33.370  20.744  1.00  0.00     0.009 A 
ENDBRANCH   7   8
ENDBRANCH   1   7
BRANCH   1  14
HETATM   14  C   LIG     1      17.638  36.998  21.072  1.00  0.00     0.125 A 
HETATM   15  C   LIG     1      18.478  36.624  20.004  1.00  0.00     0.050 A 
HETATM   16  C   LIG     1      19.349  37.564  19.450  1.00  0.00     0.005 A 
HETATM   17  C   LIG     1      19.388  38.862  19.957  1.00  0.00     0.019 A 
HETATM   18  C   LIG     1      18.553  39.203  21.020  1.00  0.00     0.119 A 
HETATM   19  N   LIG     1      17.708  38.276  21.545  1.00  0.00    -0.244 NA
ENDBRANCH   1  14
TORSDOF 6
ENDMDL
MODEL 4
REMARK VINA RESULT:      -6.2      5.275      9.221
REMARK  6 active torsions:
REMARK  status: ('A' for Active; 'I' for Inactive)
REMARK    1  A    between atoms: N_2  and  C_3 
REMARK    2  A    between atoms: C_3  and  C_4 
REMARK    3  A    between atoms: C_4  and  N_5 
REMARK    4  A    between atoms: N_5  and  C_12 
REMARK    5  A    between atoms: N_5  and  C_6 
REMARK    6  A    between atoms: C_12  and  C_13 
ROOT
HETATM    1  N   LIG     1      15.851  32.584  15.638  1.00  0.00    -0.360 N 
ENDROOT
BRANCH   1   2
HETATM    2  C   LIG     1      17.299  32.766  15.437  1.00  0.00     0.155 C 
BRANCH   2   3
HETATM    3  C   LIG     1      17.561  34.027  14.589  1.00  0.00     0.291 C 
BRANCH   3   4
HETATM    4  N   LIG     1      18.052  33.753  13.219  1.00  0.00     0.081 N 
HETATM    5  C   LIG     1      19.518  33.662  13.139  1.00  0.00     0.309 C 
HETATM    6  C   LIG     1      17.520  34.694  12.221  1.00  0.00     0.309 C 
ENDBRANCH   3   4
ENDBRANCH   2   3
ENDBRANCH   1   2
BRANCH   1   7
HETATM    7  C   LIG     1      15.081  33.647  16.308  1.00  0.00     0.163 C 
BRANCH   7   8
HETATM    8  C   LIG     1      15.286  33.592  17.800  1.00  0.00    -0.040 A 
HETATM    9  C   LIG     1      15.200  32.363  18.476  1.00  0.00     0.009 A 
HETATM   10  C   LIG     1      15.392  32.306  19.860  1.00  0.00     0.001 A 
HETATM   11  C   LIG     1      15.665  33.473  20.579  1.00  0.00     0.000 A 
HETATM   12  C   LIG     1      15.744  34.700  19.914  1.00  0.00     0.001 A 
HETATM   13  C   LIG     1      15.552  34.762  18.530  1.00  0.00     0.009 A 
ENDBRANCH   7   8
ENDBRANCH   1   7
BRANCH   1  14
HETATM   14  C   LIG     1      15.211  31.386  15.129  1.00  0.00     0.125 A 
HETATM   15  C   LIG     1      13.900  31.027  15.504  1.00  0.00     0.050 A 
HETATM   16  C   LIG     1      13.327  29.866  14.982  1.00  0.00     0.005 A 
HETATM   17  C   LIG     1      14.053  29.066  14.101  1.00  0.00     0.019 A 
HETATM   18  C   LIG     1      15.350  29.440  13.753  1.00  0.00     0.119 A 
HETATM   19  N   LIG     1      15.891  30.575  14.268  1.00  0.00    -0.244 NA
ENDBRANCH   1  14
TORSDOF 6
ENDMDL
MODEL 5
REMARK VINA RESULT:      -6.1      5.897      9.816
REMARK  6 active torsions:
REMARK  status: ('A' for Active; 'I' for Inactive)
REMARK    1  A    between atoms: N_2  and  C_3 
REMARK    2  A    between atoms: C_3  and  C_4 
REMARK    3  A    between atoms: C_4  and  N_5 
REMARK    4  A    between atoms: N_5  and  C_12 
REMARK    5  A    between atoms: N_5  and  C_6 
REMARK    6  A    between atoms: C_12  and  C_13 
ROOT
HETATM    1  N   LIG     1      15.120  31.559  15.338  1.00  0.00    -0.360 N 
ENDROOT
BRANCH   1   2
HETATM    2  C   LIG     1      16.493  32.052  15.131  1.00  0.00     0.155 C 
BRANCH   2   3
HETATM    3  C   LIG     1      16.654  32.582  13.692  1.00  0.00     0.291 C 
BRANCH   3   4
HETATM    4  N   LIG     1      17.431  33.838  13.586  1.00  0.00     0.081 N 
HETATM    5  C   LIG     1      18.785  33.636  13.048  1.00  0.00     0.309 C 
HETATM    6  C   LIG     1      17.465  34.599  14.845  1.00  0.00     0.309 C 
ENDBRANCH   3   4
ENDBRANCH   2   3
ENDBRANCH   1   2
BRANCH   1   7
HETATM    7  C   LIG     1      14.157  32.404  16.066  1.00  0.00     0.163 C 
BRANCH   7   8
HETATM    8  C   LIG     1      14.630  32.653  17.475  1.00  0.00    -0.040 A 
HETATM    9  C   LIG     1      14.572  31.621  18.428  1.00  0.00     0.009 A 
HETATM   10  C   LIG     1      15.010  31.846  19.737  1.00  0.00     0.001 A 
HETATM   11  C   LIG     1      15.504  33.100  20.105  1.00  0.00     0.000 A 
HETATM   12  C   LIG     1      15.556  34.134  19.166  1.00  0.00     0.001 A 
HETATM   13  C   LIG     1      15.118  33.914  17.856  1.00  0.00     0.009 A 
ENDBRANCH   7   8
ENDBRANCH   1   7
BRANCH   1  14
HETATM   14  C   LIG     1      14.736  30.277  14.777  1.00  0.00     0.125 A 
HETATM   15  C   LIG     1      13.388  29.873  14.703  1.00  0.00     0.050 A 
HETATM   16  C   LIG     1      13.069  28.631  14.151  1.00  0.00     0.005 A 
HETATM   17  C   LIG     1      14.082  27.796  13.682  1.00  0.00     0.019 A 
HETATM   18  C   LIG     1      15.408  28.217  13.775  1.00  0.00     0.119 A 
HETATM   19  N   LIG     1      15.700  29.431  14.313  1.00  0.00    -0.244 NA
ENDBRANCH   1  14
TORSDOF 6
ENDMDL
