REMARK  6 active torsions:
REMARK  status: ('A' for Active; 'I' for Inactive)
REMARK    1  A    between atoms: N_2  and  C_4 
REMARK    2  A    between atoms: C_4  and  C_5 
REMARK    3  A    between atoms: C_5  and  N_6 
REMARK    4  A    between atoms: N_6  and  C_13 
REMARK    5  A    between atoms: N_6  and  C_7 
REMARK    6  A    between atoms: C_13  and  C_14 
ROOT
HETATM    1  N   LIG     1      -0.227  -0.344  -0.818  1.00  0.00    -0.359 N 
ENDROOT
BRANCH   1   2
HETATM    2  C   LIG     1       1.131  -0.901  -0.741  1.00  0.00     0.155 C 
BRANCH   2   3
HETATM    3  C   LIG     1       1.930  -0.223   0.379  1.00  0.00     0.291 C 
BRANCH   3   4
HETATM    4  N   LIG     1       3.212  -0.924   0.611  1.00  0.00     0.081 N 
HETATM    5  C   LIG     1       3.707  -0.633   1.967  1.00  0.00     0.309 C 
HETATM    6  C   LIG     1       4.226  -0.513  -0.376  1.00  0.00     0.309 C 
ENDBRANCH   3   4
ENDBRANCH   2   3
ENDBRANCH   1   2
BRANCH   1   7
HETATM    7  C   LIG     1      -0.422   0.960  -1.474  1.00  0.00     0.170 C 
BRANCH   7   8
HETATM    8  C   LIG     1      -1.060   1.941  -0.535  1.00  0.00     0.000 A 
HETATM    9  C   LIG     1      -2.275   2.584  -0.731  1.00  0.00     0.017 A 
HETATM   10  C   LIG     1      -2.616   3.450   0.315  1.00  0.00     0.008 A 
HETATM   11  C   LIG     1      -1.671   3.494   1.332  1.00  0.00     0.050 A 
HETATM   12  S   LIG     1      -0.412   2.454   0.929  1.00  0.00    -0.105 SA
ENDBRANCH   7   8
ENDBRANCH   1   7
BRANCH   1  13
HETATM   13  C   LIG     1      -1.336  -1.082  -0.251  1.00  0.00     0.125 A 
HETATM   14  C   LIG     1      -2.651  -0.921  -0.728  1.00  0.00     0.050 A 
HETATM   15  C   LIG     1      -3.691  -1.642  -0.138  1.00  0.00     0.005 A 
HETATM   16  C   LIG     1      -3.422  -2.520   0.911  1.00  0.00     0.019 A 
HETATM   17  C   LIG     1      -2.109  -2.665   1.358  1.00  0.00     0.119 A 
HETATM   18  N   LIG     1      -1.109  -1.951   0.775  1.00  0.00    -0.244 NA
ENDBRANCH   1  13
TORSDOF 6
