MODEL 1
REMARK VINA RESULT:      -7.5      0.000      0.000
REMARK  3 active torsions:
REMARK  status: ('A' for Active; 'I' for Inactive)
REMARK    1  A    between atoms: C_4  and  C_5 
REMARK    2  A    between atoms: C_9  and  N_10 
REMARK    3  A    between atoms: C_15  and  N_16 
ROOT
HETATM    1 CL   LIG     1      14.845  31.085  20.233  1.00  0.00    -0.082 Cl
HETATM    2  C   LIG     1      15.285  32.772  20.001  1.00  0.00     0.061 A 
HETATM    3  C   LIG     1      15.667  33.519  21.122  1.00  0.00     0.038 A 
HETATM    4  C   LIG     1      16.024  34.874  20.997  1.00  0.00    -0.024 A 
HETATM    5  C   LIG     1      15.992  35.470  19.726  1.00  0.00     0.014 A 
HETATM    6  C   LIG     1      15.612  34.728  18.604  1.00  0.00     0.031 A 
HETATM    7  C   LIG     1      15.256  33.379  18.730  1.00  0.00     0.047 A 
ENDROOT
BRANCH   4   8
HETATM    8  C   LIG     1      16.430  35.660  22.190  1.00  0.00    -0.024 A 
HETATM    9  C   LIG     1      16.343  37.063  22.183  1.00  0.00     0.014 A 
HETATM   10  C   LIG     1      16.723  37.802  23.304  1.00  0.00     0.031 A 
HETATM   11  C   LIG     1      17.200  37.158  24.456  1.00  0.00     0.047 A 
HETATM   12  C   LIG     1      17.291  35.753  24.471  1.00  0.00     0.061 A 
HETATM   13  C   LIG     1      16.908  35.015  23.344  1.00  0.00     0.038 A 
HETATM   14 CL   LIG     1      17.885  34.879  25.878  1.00  0.00    -0.082 Cl
BRANCH  11  15
HETATM   15  N   LIG     1      17.582  37.944  25.591  1.00  0.00    -0.398 N 
HETATM   16  H   LIG     1      16.877  38.402  26.210  1.00  0.00     0.156 HD
HETATM   17  H   LIG     1      18.590  38.079  25.828  1.00  0.00     0.156 HD
ENDBRANCH  11  15
ENDBRANCH   4   8
BRANCH   7  18
HETATM   18  N   LIG     1      14.870  32.644  17.561  1.00  0.00    -0.398 N 
HETATM   19  H   LIG     1      13.876  32.389  17.372  1.00  0.00     0.156 HD
HETATM   20  H   LIG     1      15.587  32.343  16.864  1.00  0.00     0.156 HD
ENDBRANCH   7  18
TORSDOF 3
ENDMDL
MODEL 2
REMARK VINA RESULT:      -7.5      0.098      6.034
REMARK  3 active torsions:
REMARK  status: ('A' for Active; 'I' for Inactive)
REMARK    1  A    between atoms: C_4  and  C_5 
REMARK    2  A    between atoms: C_9  and  N_10 
REMARK    3  A    between atoms: C_15  and  N_16 
ROOT
HETATM    1 CL   LIG     1      17.677  34.840  25.982  1.00  0.00    -0.082 Cl
HETATM    2  C   LIG     1      17.222  35.732  24.535  1.00  0.00     0.061 A 
HETATM    3  C   LIG     1      16.836  35.007  23.402  1.00  0.00     0.038 A 
HETATM    4  C   LIG     1      16.467  35.666  22.216  1.00  0.00    -0.024 A 
HETATM    5  C   LIG     1      16.492  37.070  22.184  1.00  0.00     0.014 A 
HETATM    6  C   LIG     1      16.876  37.798  23.313  1.00  0.00     0.031 A 
HETATM    7  C   LIG     1      17.244  37.140  24.494  1.00  0.00     0.047 A 
ENDROOT
BRANCH   4   8
HETATM    8  C   LIG     1      16.057  34.891  21.017  1.00  0.00    -0.024 A 
HETATM    9  C   LIG     1      16.052  35.492  19.746  1.00  0.00     0.014 A 
HETATM   10  C   LIG     1      15.668  34.764  18.619  1.00  0.00     0.031 A 
HETATM   11  C   LIG     1      15.280  33.421  18.736  1.00  0.00     0.047 A 
HETATM   12  C   LIG     1      15.282  32.811  20.005  1.00  0.00     0.061 A 
HETATM   13  C   LIG     1      15.669  33.545  21.133  1.00  0.00     0.038 A 
HETATM   14 CL   LIG     1      14.802  31.133  20.227  1.00  0.00    -0.082 Cl
BRANCH  11  15
HETATM   15  N   LIG     1      14.891  32.699  17.561  1.00  0.00    -0.398 N 
HETATM   16  H   LIG     1      15.570  32.123  17.015  1.00  0.00     0.156 HD
HETATM   17  H   LIG     1      13.906  32.733  17.218  1.00  0.00     0.156 HD
ENDBRANCH  11  15
ENDBRANCH   4   8
BRANCH   7  18
HETATM   18  N   LIG     1      17.633  37.914  25.637  1.00  0.00    -0.398 N 
HETATM   19  H   LIG     1      17.351  37.648  26.606  1.00  0.00     0.156 HD
HETATM   20  H   LIG     1      18.216  38.772  25.522  1.00  0.00     0.156 HD
ENDBRANCH   7  18
TORSDOF 3
ENDMDL
MODEL 3
REMARK VINA RESULT:      -7.0      2.756      3.293
REMARK  3 active torsions:
REMARK  status: ('A' for Active; 'I' for Inactive)
REMARK    1  A    between atoms: C_4  and  C_5 
REMARK    2  A    between atoms: C_9  and  N_10 
REMARK    3  A    between atoms: C_15  and  N_16 
ROOT
HETATM    1 CL   LIG     1      15.026  33.512  16.484  1.00  0.00    -0.082 Cl
HETATM    2  C   LIG     1      15.278  33.636  18.221  1.00  0.00     0.061 A 
HETATM    3  C   LIG     1      15.934  34.768  18.718  1.00  0.00     0.038 A 
HETATM    4  C   LIG     1      16.167  34.917  20.097  1.00  0.00    -0.024 A 
HETATM    5  C   LIG     1      15.730  33.910  20.973  1.00  0.00     0.014 A 
HETATM    6  C   LIG     1      15.074  32.779  20.481  1.00  0.00     0.031 A 
HETATM    7  C   LIG     1      14.842  32.630  19.107  1.00  0.00     0.047 A 
ENDROOT
BRANCH   4   8
HETATM    8  C   LIG     1      16.863  36.122  20.619  1.00  0.00    -0.024 A 
HETATM    9  C   LIG     1      16.418  36.749  21.795  1.00  0.00     0.014 A 
HETATM   10  C   LIG     1      17.073  37.880  22.286  1.00  0.00     0.031 A 
HETATM   11  C   LIG     1      18.184  38.409  21.614  1.00  0.00     0.047 A 
HETATM   12  C   LIG     1      18.636  37.787  20.434  1.00  0.00     0.061 A 
HETATM   13  C   LIG     1      17.977  36.652  19.945  1.00  0.00     0.038 A 
HETATM   14 CL   LIG     1      20.019  38.400  19.535  1.00  0.00    -0.082 Cl
BRANCH  11  15
HETATM   15  N   LIG     1      18.835  39.571  22.142  1.00  0.00    -0.398 N 
HETATM   16  H   LIG     1      18.349  40.492  22.215  1.00  0.00     0.156 HD
HETATM   17  H   LIG     1      19.825  39.522  22.470  1.00  0.00     0.156 HD
ENDBRANCH  11  15
ENDBRANCH   4   8
BRANCH   7  18
HETATM   18  N   LIG     1      14.166  31.459  18.632  1.00  0.00    -0.398 N 
HETATM   19  H   LIG     1      14.197  30.554  19.151  1.00  0.00     0.156 HD
HETATM   20  H   LIG     1      13.620  31.487  17.742  1.00  0.00     0.156 HD
ENDBRANCH   7  18
TORSDOF 3
ENDMDL
MODEL 4
REMARK VINA RESULT:      -7.0      1.593      1.968
REMARK  3 active torsions:
REMARK  status: ('A' for Active; 'I' for Inactive)
REMARK    1  A    between atoms: C_4  and  C_5 
REMARK    2  A    between atoms: C_9  and  N_10 
REMARK    3  A    between atoms: C_15  and  N_16 
ROOT
HETATM    1 CL   LIG     1      14.937  30.890  20.185  1.00  0.00    -0.082 Cl
HETATM    2  C   LIG     1      15.301  32.569  19.811  1.00  0.00     0.061 A 
HETATM    3  C   LIG     1      15.781  33.390  20.838  1.00  0.00     0.038 A 
HETATM    4  C   LIG     1      16.083  34.742  20.597  1.00  0.00    -0.024 A 
HETATM    5  C   LIG     1      15.896  35.261  19.305  1.00  0.00     0.014 A 
HETATM    6  C   LIG     1      15.418  34.445  18.276  1.00  0.00     0.031 A 
HETATM    7  C   LIG     1      15.116  33.098  18.517  1.00  0.00     0.047 A 
ENDROOT
BRANCH   4   8
HETATM    8  C   LIG     1      16.594  35.608  21.691  1.00  0.00    -0.024 A 
HETATM    9  C   LIG     1      16.669  35.124  23.008  1.00  0.00     0.014 A 
HETATM   10  C   LIG     1      17.149  35.936  24.036  1.00  0.00     0.031 A 
HETATM   11  C   LIG     1      17.564  37.250  23.772  1.00  0.00     0.047 A 
HETATM   12  C   LIG     1      17.491  37.744  22.456  1.00  0.00     0.061 A 
HETATM   13  C   LIG     1      17.009  36.925  21.427  1.00  0.00     0.038 A 
HETATM   14 CL   LIG     1      17.987  39.383  22.053  1.00  0.00    -0.082 Cl
BRANCH  11  15
HETATM   15  N   LIG     1      18.053  38.061  24.848  1.00  0.00    -0.398 N 
HETATM   16  H   LIG     1      17.797  37.872  25.843  1.00  0.00     0.156 HD
HETATM   17  H   LIG     1      18.683  38.871  24.659  1.00  0.00     0.156 HD
ENDBRANCH  11  15
ENDBRANCH   4   8
BRANCH   7  18
HETATM   18  N   LIG     1      14.628  32.285  17.442  1.00  0.00    -0.398 N 
HETATM   19  H   LIG     1      13.618  32.037  17.352  1.00  0.00     0.156 HD
HETATM   20  H   LIG     1      15.282  31.918  16.716  1.00  0.00     0.156 HD
ENDBRANCH   7  18
TORSDOF 3
ENDMDL
MODEL 5
REMARK VINA RESULT:      -6.7      6.479     10.558
REMARK  3 active torsions:
REMARK  status: ('A' for Active; 'I' for Inactive)
REMARK    1  A    between atoms: C_4  and  C_5 
REMARK    2  A    between atoms: C_9  and  N_10 
REMARK    3  A    between atoms: C_15  and  N_16 
ROOT
HETATM    1 CL   LIG     1      17.397  33.866  14.979  1.00  0.00    -0.082 Cl
HETATM    2  C   LIG     1      16.037  32.910  15.554  1.00  0.00     0.061 A 
HETATM    3  C   LIG     1      15.696  31.749  14.850  1.00  0.00     0.038 A 
HETATM    4  C   LIG     1      14.615  30.949  15.261  1.00  0.00    -0.024 A 
HETATM    5  C   LIG     1      13.879  31.332  16.395  1.00  0.00     0.014 A 
HETATM    6  C   LIG     1      14.217  32.489  17.101  1.00  0.00     0.031 A 
HETATM    7  C   LIG     1      15.293  33.286  16.691  1.00  0.00     0.047 A 
ENDROOT
BRANCH   4   8
HETATM    8  C   LIG     1      14.258  29.718  14.510  1.00  0.00    -0.024 A 
HETATM    9  C   LIG     1      12.921  29.293  14.431  1.00  0.00     0.014 A 
HETATM   10  C   LIG     1      12.585  28.137  13.724  1.00  0.00     0.031 A 
HETATM   11  C   LIG     1      13.576  27.381  13.082  1.00  0.00     0.047 A 
HETATM   12  C   LIG     1      14.919  27.799  13.157  1.00  0.00     0.061 A 
HETATM   13  C   LIG     1      15.251  28.960  13.866  1.00  0.00     0.038 A 
HETATM   14 CL   LIG     1      16.215  26.895  12.381  1.00  0.00    -0.082 Cl
BRANCH  11  15
HETATM   15  N   LIG     1      13.201  26.199  12.363  1.00  0.00    -0.398 N 
HETATM   16  H   LIG     1      12.239  25.797  12.423  1.00  0.00     0.156 HD
HETATM   17  H   LIG     1      13.891  25.705  11.755  1.00  0.00     0.156 HD
ENDBRANCH  11  15
ENDBRANCH   4   8
BRANCH   7  18
HETATM   18  N   LIG     1      15.617  34.467  17.436  1.00  0.00    -0.398 N 
HETATM   19  H   LIG     1      14.958  35.274  17.506  1.00  0.00     0.156 HD
HETATM   20  H   LIG     1      16.532  34.546  17.933  1.00  0.00     0.156 HD
ENDBRANCH   7  18
TORSDOF 3
ENDMDL
MODEL 6
REMARK VINA RESULT:      -6.7      2.084      6.368
REMARK  3 active torsions:
REMARK  status: ('A' for Active; 'I' for Inactive)
REMARK    1  A    between atoms: C_4  and  C_5 
REMARK    2  A    between atoms: C_9  and  N_10 
REMARK    3  A    between atoms: C_15  and  N_16 
ROOT
HETATM    1 CL   LIG     1      16.686  37.812  24.302  1.00  0.00    -0.082 Cl
HETATM    2  C   LIG     1      17.108  37.379  22.650  1.00  0.00     0.061 A 
HETATM    3  C   LIG     1      16.459  36.286  22.063  1.00  0.00     0.038 A 
HETATM    4  C   LIG     1      16.760  35.892  20.747  1.00  0.00    -0.024 A 
HETATM    5  C   LIG     1      17.725  36.613  20.025  1.00  0.00     0.014 A 
HETATM    6  C   LIG     1      18.374  37.706  20.607  1.00  0.00     0.031 A 
HETATM    7  C   LIG     1      18.074  38.098  21.918  1.00  0.00     0.047 A 
ENDROOT
BRANCH   4   8
HETATM    8  C   LIG     1      16.067  34.731  20.130  1.00  0.00    -0.024 A 
HETATM    9  C   LIG     1      15.578  33.685  20.930  1.00  0.00     0.014 A 
HETATM   10  C   LIG     1      14.926  32.595  20.351  1.00  0.00     0.031 A 
HETATM   11  C   LIG     1      14.749  32.526  18.961  1.00  0.00     0.047 A 
HETATM   12  C   LIG     1      15.238  33.569  18.152  1.00  0.00     0.061 A 
HETATM   13  C   LIG     1      15.890  34.662  18.737  1.00  0.00     0.038 A 
HETATM   14 CL   LIG     1      15.058  33.546  16.401  1.00  0.00    -0.082 Cl
BRANCH  11  15
HETATM   15  N   LIG     1      14.076  31.394  18.395  1.00  0.00    -0.398 N 
HETATM   16  H   LIG     1      14.326  30.415  18.656  1.00  0.00     0.156 HD
HETATM   17  H   LIG     1      13.310  31.526  17.698  1.00  0.00     0.156 HD
ENDBRANCH  11  15
ENDBRANCH   4   8
BRANCH   7  18
HETATM   18  N   LIG     1      18.757  39.223  22.488  1.00  0.00    -0.398 N 
HETATM   19  H   LIG     1      19.397  39.124  23.306  1.00  0.00     0.156 HD
HETATM   20  H   LIG     1      18.625  40.179  22.089  1.00  0.00     0.156 HD
ENDBRANCH   7  18
TORSDOF 3
ENDMDL
MODEL 7
REMARK VINA RESULT:      -6.6      6.398      8.860
REMARK  3 active torsions:
REMARK  status: ('A' for Active; 'I' for Inactive)
REMARK    1  A    between atoms: C_4  and  C_5 
REMARK    2  A    between atoms: C_9  and  N_10 
REMARK    3  A    between atoms: C_15  and  N_16 
ROOT
HETATM    1 CL   LIG     1      11.002  27.834  13.007  1.00  0.00    -0.082 Cl
HETATM    2  C   LIG     1      12.675  28.193  13.415  1.00  0.00     0.061 A 
HETATM    3  C   LIG     1      12.944  29.342  14.167  1.00  0.00     0.038 A 
HETATM    4  C   LIG     1      14.263  29.682  14.518  1.00  0.00    -0.024 A 
HETATM    5  C   LIG     1      15.313  28.846  14.102  1.00  0.00     0.014 A 
HETATM    6  C   LIG     1      15.049  27.697  13.351  1.00  0.00     0.031 A 
HETATM    7  C   LIG     1      13.735  27.361  13.002  1.00  0.00     0.047 A 
ENDROOT
BRANCH   4   8
HETATM    8  C   LIG     1      14.541  30.903  15.317  1.00  0.00    -0.024 A 
HETATM    9  C   LIG     1      13.755  31.216  16.439  1.00  0.00     0.014 A 
HETATM   10  C   LIG     1      14.017  32.362  17.191  1.00  0.00     0.031 A 
HETATM   11  C   LIG     1      15.068  33.221  16.839  1.00  0.00     0.047 A 
HETATM   12  C   LIG     1      15.860  32.916  15.716  1.00  0.00     0.061 A 
HETATM   13  C   LIG     1      15.595  31.764  14.965  1.00  0.00     0.038 A 
HETATM   14 CL   LIG     1      17.192  33.951  15.212  1.00  0.00    -0.082 Cl
BRANCH  11  15
HETATM   15  N   LIG     1      15.313  34.391  17.630  1.00  0.00    -0.398 N 
HETATM   16  H   LIG     1      14.907  34.507  18.585  1.00  0.00     0.156 HD
HETATM   17  H   LIG     1      15.911  35.164  17.264  1.00  0.00     0.156 HD
ENDBRANCH  11  15
ENDBRANCH   4   8
BRANCH   7  18
HETATM   18  N   LIG     1      13.495  26.175  12.232  1.00  0.00    -0.398 N 
HETATM   19  H   LIG     1      12.592  25.655  12.286  1.00  0.00     0.156 HD
HETATM   20  H   LIG     1      14.230  25.802  11.591  1.00  0.00     0.156 HD
ENDBRANCH   7  18
TORSDOF 3
ENDMDL
MODEL 8
REMARK VINA RESULT:      -6.0      7.422      9.912
REMARK  3 active torsions:
REMARK  status: ('A' for Active; 'I' for Inactive)
REMARK    1  A    between atoms: C_4  and  C_5 
REMARK    2  A    between atoms: C_9  and  N_10 
REMARK    3  A    between atoms: C_15  and  N_16 
ROOT
HETATM    1 CL   LIG     1      22.425  34.500  13.055  1.00  0.00    -0.082 Cl
HETATM    2  C   LIG     1      20.776  34.399  12.451  1.00  0.00     0.061 A 
HETATM    3  C   LIG     1      19.789  33.878  13.296  1.00  0.00     0.038 A 
HETATM    4  C   LIG     1      18.455  33.768  12.864  1.00  0.00    -0.024 A 
HETATM    5  C   LIG     1      18.125  34.192  11.566  1.00  0.00     0.014 A 
HETATM    6  C   LIG     1      19.106  34.713  10.720  1.00  0.00     0.031 A 
HETATM    7  C   LIG     1      20.435  34.821  11.150  1.00  0.00     0.047 A 
ENDROOT
BRANCH   4   8
HETATM    8  C   LIG     1      17.412  33.216  13.767  1.00  0.00    -0.024 A 
HETATM    9  C   LIG     1      17.172  33.801  15.021  1.00  0.00     0.014 A 
HETATM   10  C   LIG     1      16.191  33.282  15.869  1.00  0.00     0.031 A 
HETATM   11  C   LIG     1      15.431  32.169  15.483  1.00  0.00     0.047 A 
HETATM   12  C   LIG     1      15.667  31.576  14.228  1.00  0.00     0.061 A 
HETATM   13  C   LIG     1      16.651  32.099  13.380  1.00  0.00     0.038 A 
HETATM   14 CL   LIG     1      14.755  30.173  13.681  1.00  0.00    -0.082 Cl
BRANCH  11  15
HETATM   15  N   LIG     1      14.431  31.659  16.375  1.00  0.00    -0.398 N 
HETATM   16  H   LIG     1      14.349  31.991  17.361  1.00  0.00     0.156 HD
HETATM   17  H   LIG     1      13.754  30.933  16.053  1.00  0.00     0.156 HD
ENDBRANCH  11  15
ENDBRANCH   4   8
BRANCH   7  18
HETATM   18  N   LIG     1      21.420  35.360  10.259  1.00  0.00    -0.398 N 
HETATM   19  H   LIG     1      21.278  35.381   9.226  1.00  0.00     0.156 HD
HETATM   20  H   LIG     1      22.314  35.751  10.632  1.00  0.00     0.156 HD
ENDBRANCH   7  18
TORSDOF 3
ENDMDL
MODEL 9
REMARK VINA RESULT:      -5.6      6.914      9.642
REMARK  3 active torsions:
REMARK  status: ('A' for Active; 'I' for Inactive)
REMARK    1  A    between atoms: C_4  and  C_5 
REMARK    2  A    between atoms: C_9  and  N_10 
REMARK    3  A    between atoms: C_15  and  N_16 
ROOT
HETATM    1 CL   LIG     1      15.415  34.119  17.338  1.00  0.00    -0.082 Cl
HETATM    2  C   LIG     1      15.820  33.253  15.861  1.00  0.00     0.061 A 
HETATM    3  C   LIG     1      16.823  33.778  15.038  1.00  0.00     0.038 A 
HETATM    4  C   LIG     1      17.185  33.131  13.843  1.00  0.00    -0.024 A 
HETATM    5  C   LIG     1      16.522  31.945  13.485  1.00  0.00     0.014 A 
HETATM    6  C   LIG     1      15.521  31.417  14.304  1.00  0.00     0.031 A 
HETATM    7  C   LIG     1      15.161  32.063  15.494  1.00  0.00     0.047 A 
ENDROOT
BRANCH   4   8
HETATM    8  C   LIG     1      18.251  33.692  12.973  1.00  0.00    -0.024 A 
HETATM    9  C   LIG     1      17.936  34.221  11.710  1.00  0.00     0.014 A 
HETATM   10  C   LIG     1      18.937  34.749  10.893  1.00  0.00     0.031 A 
HETATM   11  C   LIG     1      20.273  34.760  11.319  1.00  0.00     0.047 A 
HETATM   12  C   LIG     1      20.597  34.232  12.583  1.00  0.00     0.061 A 
HETATM   13  C   LIG     1      19.590  33.703  13.400  1.00  0.00     0.038 A 
HETATM   14 CL   LIG     1      22.253  34.207  13.180  1.00  0.00    -0.082 Cl
BRANCH  11  15
HETATM   15  N   LIG     1      21.279  35.310  10.459  1.00  0.00    -0.398 N 
HETATM   16  H   LIG     1      22.223  34.874  10.364  1.00  0.00     0.156 HD
HETATM   17  H   LIG     1      21.088  36.171   9.901  1.00  0.00     0.156 HD
ENDBRANCH  11  15
ENDBRANCH   4   8
BRANCH   7  18
HETATM   18  N   LIG     1      14.130  31.497  16.315  1.00  0.00    -0.398 N 
HETATM   19  H   LIG     1      14.335  31.077  17.248  1.00  0.00     0.156 HD
HETATM   20  H   LIG     1      13.138  31.494  15.992  1.00  0.00     0.156 HD
ENDBRANCH   7  18
TORSDOF 3
ENDMDL
MODEL 10
REMARK VINA RESULT:      -5.5      5.204      7.858
REMARK  3 active torsions:
REMARK  status: ('A' for Active; 'I' for Inactive)
REMARK    1  A    between atoms: C_4  and  C_5 
REMARK    2  A    between atoms: C_9  and  N_10 
REMARK    3  A    between atoms: C_15  and  N_16 
ROOT
HETATM    1 CL   LIG     1      11.252  28.425  13.361  1.00  0.00    -0.082 Cl
HETATM    2  C   LIG     1      12.916  28.758  13.827  1.00  0.00     0.061 A 
HETATM    3  C   LIG     1      13.163  29.837  14.683  1.00  0.00     0.038 A 
HETATM    4  C   LIG     1      14.473  30.153  15.084  1.00  0.00    -0.024 A 
HETATM    5  C   LIG     1      15.536  29.365  14.612  1.00  0.00     0.014 A 
HETATM    6  C   LIG     1      15.294  28.287  13.757  1.00  0.00     0.031 A 
HETATM    7  C   LIG     1      13.989  27.973  13.358  1.00  0.00     0.047 A 
ENDROOT
BRANCH   4   8
HETATM    8  C   LIG     1      14.729  31.299  15.994  1.00  0.00    -0.024 A 
HETATM    9  C   LIG     1      15.196  32.523  15.485  1.00  0.00     0.014 A 
HETATM   10  C   LIG     1      15.435  33.601  16.339  1.00  0.00     0.031 A 
HETATM   11  C   LIG     1      15.215  33.480  17.719  1.00  0.00     0.047 A 
HETATM   12  C   LIG     1      14.748  32.256  18.237  1.00  0.00     0.061 A 
HETATM   13  C   LIG     1      14.509  31.178  17.377  1.00  0.00     0.038 A 
HETATM   14 CL   LIG     1      14.456  32.031  19.958  1.00  0.00    -0.082 Cl
BRANCH  11  15
HETATM   15  N   LIG     1      15.469  34.604  18.571  1.00  0.00    -0.398 N 
HETATM   16  H   LIG     1      16.061  34.525  19.428  1.00  0.00     0.156 HD
HETATM   17  H   LIG     1      15.062  35.539  18.352  1.00  0.00     0.156 HD
ENDBRANCH  11  15
ENDBRANCH   4   8
BRANCH   7  18
HETATM   18  N   LIG     1      13.771  26.860  12.481  1.00  0.00    -0.398 N 
HETATM   19  H   LIG     1      13.598  26.987  11.460  1.00  0.00     0.156 HD
HETATM   20  H   LIG     1      13.781  25.884  12.852  1.00  0.00     0.156 HD
ENDBRANCH   7  18
TORSDOF 3
ENDMDL
MODEL 11
REMARK VINA RESULT:      -5.4      2.044      6.291
REMARK  3 active torsions:
REMARK  status: ('A' for Active; 'I' for Inactive)
REMARK    1  A    between atoms: C_4  and  C_5 
REMARK    2  A    between atoms: C_9  and  N_10 
REMARK    3  A    between atoms: C_15  and  N_16 
ROOT
HETATM    1 CL   LIG     1      18.448  34.475  26.598  1.00  0.00    -0.082 Cl
HETATM    2  C   LIG     1      17.806  35.694  25.505  1.00  0.00     0.061 A 
HETATM    3  C   LIG     1      17.470  35.308  24.202  1.00  0.00     0.038 A 
HETATM    4  C   LIG     1      16.957  36.241  23.284  1.00  0.00    -0.024 A 
HETATM    5  C   LIG     1      16.786  37.574  23.693  1.00  0.00     0.014 A 
HETATM    6  C   LIG     1      17.120  37.964  24.993  1.00  0.00     0.031 A 
HETATM    7  C   LIG     1      17.631  37.034  25.907  1.00  0.00     0.047 A 
ENDROOT
BRANCH   4   8
HETATM    8  C   LIG     1      16.601  35.824  21.903  1.00  0.00    -0.024 A 
HETATM    9  C   LIG     1      15.494  34.990  21.673  1.00  0.00     0.014 A 
HETATM   10  C   LIG     1      15.159  34.599  20.375  1.00  0.00     0.031 A 
HETATM   11  C   LIG     1      15.921  35.032  19.280  1.00  0.00     0.047 A 
HETATM   12  C   LIG     1      17.032  35.867  19.502  1.00  0.00     0.061 A 
HETATM   13  C   LIG     1      17.365  36.258  20.805  1.00  0.00     0.038 A 
HETATM   14 CL   LIG     1      18.037  36.443  18.177  1.00  0.00    -0.082 Cl
BRANCH  11  15
HETATM   15  N   LIG     1      15.552  34.614  17.960  1.00  0.00    -0.398 N 
HETATM   16  H   LIG     1      15.954  33.758  17.518  1.00  0.00     0.156 HD
HETATM   17  H   LIG     1      14.863  35.165  17.402  1.00  0.00     0.156 HD
ENDBRANCH  11  15
ENDBRANCH   4   8
BRANCH   7  18
HETATM   18  N   LIG     1      17.964  37.463  27.234  1.00  0.00    -0.398 N 
HETATM   19  H   LIG     1      18.617  36.921  27.842  1.00  0.00     0.156 HD
HETATM   20  H   LIG     1      17.554  38.340  27.625  1.00  0.00     0.156 HD
ENDBRANCH   7  18
TORSDOF 3
ENDMDL
MODEL 12
REMARK VINA RESULT:      -5.2      3.862      5.542
REMARK  3 active torsions:
REMARK  status: ('A' for Active; 'I' for Inactive)
REMARK    1  A    between atoms: C_4  and  C_5 
REMARK    2  A    between atoms: C_9  and  N_10 
REMARK    3  A    between atoms: C_15  and  N_16 
ROOT
HETATM    1 CL   LIG     1      13.060  29.440  14.567  1.00  0.00    -0.082 Cl
HETATM    2  C   LIG     1      14.285  30.613  15.035  1.00  0.00     0.061 A 
HETATM    3  C   LIG     1      14.254  31.122  16.339  1.00  0.00     0.038 A 
HETATM    4  C   LIG     1      15.204  32.065  16.767  1.00  0.00    -0.024 A 
HETATM    5  C   LIG     1      16.191  32.494  15.863  1.00  0.00     0.014 A 
HETATM    6  C   LIG     1      16.226  31.989  14.561  1.00  0.00     0.031 A 
HETATM    7  C   LIG     1      15.278  31.049  14.135  1.00  0.00     0.047 A 
ENDROOT
BRANCH   4   8
HETATM    8  C   LIG     1      15.167  32.600  18.152  1.00  0.00    -0.024 A 
HETATM    9  C   LIG     1      14.616  31.838  19.196  1.00  0.00     0.014 A 
HETATM   10  C   LIG     1      14.582  32.339  20.499  1.00  0.00     0.031 A 
HETATM   11  C   LIG     1      15.094  33.613  20.786  1.00  0.00     0.047 A 
HETATM   12  C   LIG     1      15.646  34.384  19.746  1.00  0.00     0.061 A 
HETATM   13  C   LIG     1      15.680  33.876  18.441  1.00  0.00     0.038 A 
HETATM   14 CL   LIG     1      16.302  35.992  20.032  1.00  0.00    -0.082 Cl
BRANCH  11  15
HETATM   15  N   LIG     1      15.045  34.101  22.133  1.00  0.00    -0.398 N 
HETATM   16  H   LIG     1      14.563  33.574  22.894  1.00  0.00     0.156 HD
HETATM   17  H   LIG     1      15.496  35.008  22.386  1.00  0.00     0.156 HD
ENDBRANCH  11  15
ENDBRANCH   4   8
BRANCH   7  18
HETATM   18  N   LIG     1      15.340  30.548  12.793  1.00  0.00    -0.398 N 
HETATM   19  H   LIG     1      15.681  31.134  12.000  1.00  0.00     0.156 HD
HETATM   20  H   LIG     1      15.040  29.571  12.578  1.00  0.00     0.156 HD
ENDBRANCH   7  18
TORSDOF 3
ENDMDL
MODEL 13
REMARK VINA RESULT:      -4.7      7.656     11.986
REMARK  3 active torsions:
REMARK  status: ('A' for Active; 'I' for Inactive)
REMARK    1  A    between atoms: C_4  and  C_5 
REMARK    2  A    between atoms: C_9  and  N_10 
REMARK    3  A    between atoms: C_15  and  N_16 
ROOT
HETATM    1 CL   LIG     1      16.421  32.569  15.670  1.00  0.00    -0.082 Cl
HETATM    2  C   LIG     1      15.146  31.385  15.412  1.00  0.00     0.061 A 
HETATM    3  C   LIG     1      15.376  30.349  14.500  1.00  0.00     0.038 A 
HETATM    4  C   LIG     1      14.390  29.377  14.250  1.00  0.00    -0.024 A 
HETATM    5  C   LIG     1      13.166  29.460  14.933  1.00  0.00     0.014 A 
HETATM    6  C   LIG     1      12.932  30.492  15.845  1.00  0.00     0.031 A 
HETATM    7  C   LIG     1      13.914  31.460  16.093  1.00  0.00     0.047 A 
ENDROOT
BRANCH   4   8
HETATM    8  C   LIG     1      14.641  28.279  13.281  1.00  0.00    -0.024 A 
HETATM    9  C   LIG     1      15.919  28.096  12.726  1.00  0.00     0.014 A 
HETATM   10  C   LIG     1      16.155  27.063  11.816  1.00  0.00     0.031 A 
HETATM   11  C   LIG     1      15.121  26.193  11.440  1.00  0.00     0.047 A 
HETATM   12  C   LIG     1      13.838  26.371  11.991  1.00  0.00     0.061 A 
HETATM   13  C   LIG     1      13.605  27.407  12.904  1.00  0.00     0.038 A 
HETATM   14 CL   LIG     1      12.492  25.321  11.561  1.00  0.00    -0.082 Cl
BRANCH  11  15
HETATM   15  N   LIG     1      15.394  25.143  10.505  1.00  0.00    -0.398 N 
HETATM   16  H   LIG     1      15.422  25.313   9.475  1.00  0.00     0.156 HD
HETATM   17  H   LIG     1      15.572  24.169  10.836  1.00  0.00     0.156 HD
ENDBRANCH  11  15
ENDBRANCH   4   8
BRANCH   7  18
HETATM   18  N   LIG     1      13.646  32.508  17.035  1.00  0.00    -0.398 N 
HETATM   19  H   LIG     1      13.376  32.306  18.023  1.00  0.00     0.156 HD
HETATM   20  H   LIG     1      13.716  33.509  16.748  1.00  0.00     0.156 HD
ENDBRANCH   7  18
TORSDOF 3
ENDMDL
MODEL 14
REMARK VINA RESULT:      -4.6     15.131     15.847
REMARK  3 active torsions:
REMARK  status: ('A' for Active; 'I' for Inactive)
REMARK    1  A    between atoms: C_4  and  C_5 
REMARK    2  A    between atoms: C_9  and  N_10 
REMARK    3  A    between atoms: C_15  and  N_16 
ROOT
HETATM    1 CL   LIG     1      22.935  21.150  18.243  1.00  0.00    -0.082 Cl
HETATM    2  C   LIG     1      24.020  22.068  19.279  1.00  0.00     0.061 A 
HETATM    3  C   LIG     1      24.978  22.891  18.676  1.00  0.00     0.038 A 
HETATM    4  C   LIG     1      25.874  23.644  19.455  1.00  0.00    -0.024 A 
HETATM    5  C   LIG     1      25.795  23.559  20.854  1.00  0.00     0.014 A 
HETATM    6  C   LIG     1      24.840  22.739  21.461  1.00  0.00     0.031 A 
HETATM    7  C   LIG     1      23.947  21.989  20.685  1.00  0.00     0.047 A 
ENDROOT
BRANCH   4   8
HETATM    8  C   LIG     1      26.888  24.516  18.808  1.00  0.00    -0.024 A 
HETATM    9  C   LIG     1      27.248  25.744  19.389  1.00  0.00     0.014 A 
HETATM   10  C   LIG     1      28.201  26.564  18.782  1.00  0.00     0.031 A 
HETATM   11  C   LIG     1      28.815  26.176  17.582  1.00  0.00     0.047 A 
HETATM   12  C   LIG     1      28.460  24.947  16.992  1.00  0.00     0.061 A 
HETATM   13  C   LIG     1      27.503  24.128  17.605  1.00  0.00     0.038 A 
HETATM   14 CL   LIG     1      29.184  24.400  15.485  1.00  0.00    -0.082 Cl
BRANCH  11  15
HETATM   15  N   LIG     1      29.790  27.038  16.982  1.00  0.00    -0.398 N 
HETATM   16  H   LIG     1      30.441  27.618  17.556  1.00  0.00     0.156 HD
HETATM   17  H   LIG     1      29.871  27.107  15.944  1.00  0.00     0.156 HD
ENDBRANCH  11  15
ENDBRANCH   4   8
BRANCH   7  18
HETATM   18  N   LIG     1      22.978  21.157  21.336  1.00  0.00    -0.398 N 
HETATM   19  H   LIG     1      22.419  21.494  22.151  1.00  0.00     0.156 HD
HETATM   20  H   LIG     1      22.807  20.182  21.003  1.00  0.00     0.156 HD
ENDBRANCH   7  18
TORSDOF 3
ENDMDL
MODEL 15
REMARK VINA RESULT:      -4.5     15.117     16.181
REMARK  3 active torsions:
REMARK  status: ('A' for Active; 'I' for Inactive)
REMARK    1  A    between atoms: C_4  and  C_5 
REMARK    2  A    between atoms: C_9  and  N_10 
REMARK    3  A    between atoms: C_15  and  N_16 
ROOT
HETATM    1 CL   LIG     1      28.833  27.901  18.229  1.00  0.00    -0.082 Cl
HETATM    2  C   LIG     1      28.501  26.209  17.883  1.00  0.00     0.061 A 
HETATM    3  C   LIG     1      27.465  25.578  18.583  1.00  0.00     0.038 A 
HETATM    4  C   LIG     1      27.159  24.225  18.351  1.00  0.00    -0.024 A 
HETATM    5  C   LIG     1      27.910  23.512  17.402  1.00  0.00     0.014 A 
HETATM    6  C   LIG     1      28.944  24.137  16.701  1.00  0.00     0.031 A 
HETATM    7  C   LIG     1      29.249  25.485  16.933  1.00  0.00     0.047 A 
ENDROOT
BRANCH   4   8
HETATM    8  C   LIG     1      26.058  23.562  19.096  1.00  0.00    -0.024 A 
HETATM    9  C   LIG     1      25.960  23.696  20.492  1.00  0.00     0.014 A 
HETATM   10  C   LIG     1      24.925  23.074  21.192  1.00  0.00     0.031 A 
HETATM   11  C   LIG     1      23.967  22.305  20.515  1.00  0.00     0.047 A 
HETATM   12  C   LIG     1      24.058  22.165  19.117  1.00  0.00     0.061 A 
HETATM   13  C   LIG     1      25.098  22.792  18.418  1.00  0.00     0.038 A 
HETATM   14 CL   LIG     1      22.896  21.211  18.204  1.00  0.00    -0.082 Cl
BRANCH  11  15
HETATM   15  N   LIG     1      22.915  21.678  21.262  1.00  0.00    -0.398 N 
HETATM   16  H   LIG     1      22.652  20.679  21.114  1.00  0.00     0.156 HD
HETATM   17  H   LIG     1      22.381  22.216  21.979  1.00  0.00     0.156 HD
ENDBRANCH  11  15
ENDBRANCH   4   8
BRANCH   7  18
HETATM   18  N   LIG     1      30.315  26.100  16.198  1.00  0.00    -0.398 N 
HETATM   19  H   LIG     1      30.778  26.976  16.525  1.00  0.00     0.156 HD
HETATM   20  H   LIG     1      30.656  25.677  15.306  1.00  0.00     0.156 HD
ENDBRANCH   7  18
TORSDOF 3
ENDMDL
