REMARK  3 active torsions:
REMARK  status: ('A' for Active; 'I' for Inactive)
REMARK    1  A    between atoms: C_4  and  C_5 
REMARK    2  A    between atoms: C_9  and  N_10 
REMARK    3  A    between atoms: C_15  and  N_16 
ROOT
HETATM    1 CL   LIG     1       3.384   2.894  -1.116  1.00  0.00    -0.082 Cl
HETATM    2  C   LIG     1       2.719   1.356  -0.581  1.00  0.00     0.061 A 
HETATM    3  C   LIG     1       1.329   1.237  -0.466  1.00  0.00     0.038 A 
HETATM    4  C   LIG     1       0.742   0.033  -0.038  1.00  0.00    -0.024 A 
HETATM    5  C   LIG     1       1.574  -1.055   0.274  1.00  0.00     0.014 A 
HETATM    6  C   LIG     1       2.962  -0.941   0.160  1.00  0.00     0.031 A 
HETATM    7  C   LIG     1       3.546   0.259  -0.266  1.00  0.00     0.047 A 
ENDROOT
BRANCH   4   8
HETATM    8  C   LIG     1      -0.734  -0.087   0.081  1.00  0.00    -0.024 A 
HETATM    9  C   LIG     1      -1.309  -0.762   1.171  1.00  0.00     0.014 A 
HETATM   10  C   LIG     1      -2.696  -0.874   1.284  1.00  0.00     0.031 A 
HETATM   11  C   LIG     1      -3.538  -0.316   0.311  1.00  0.00     0.047 A 
HETATM   12  C   LIG     1      -2.970   0.361  -0.785  1.00  0.00     0.061 A 
HETATM   13  C   LIG     1      -1.578   0.472  -0.894  1.00  0.00     0.038 A 
HETATM   14 CL   LIG     1      -3.965   1.080  -2.046  1.00  0.00    -0.082 Cl
BRANCH  11  15
HETATM   15  N   LIG     1      -4.958  -0.447   0.454  1.00  0.00    -0.398 N 
HETATM   16  H   LIG     1      -5.623  -0.047  -0.244  1.00  0.00     0.156 HD
HETATM   17  H   LIG     1      -5.365  -0.952   1.272  1.00  0.00     0.156 HD
ENDBRANCH  11  15
ENDBRANCH   4   8
BRANCH   7  18
HETATM   18  N   LIG     1       4.973   0.346  -0.374  1.00  0.00    -0.398 N 
HETATM   19  H   LIG     1       5.451   1.219  -0.688  1.00  0.00     0.156 HD
HETATM   20  H   LIG     1       5.573  -0.475  -0.137  1.00  0.00     0.156 HD
ENDBRANCH   7  18
TORSDOF 3
