REMARK  0 active torsions:
REMARK  status: ('A' for Active; 'I' for Inactive)
ROOT
HETATM    1  C   LIG     1      -2.414  -0.710  -0.309  1.00  0.00    -0.025 A 
HETATM    2  C   LIG     1      -1.179  -1.322  -0.566  1.00  0.00     0.024 A 
HETATM    3  C   LIG     1       0.019  -0.651  -0.277  1.00  0.00    -0.024 A 
HETATM    4  C   LIG     1       1.255  -1.263  -0.535  1.00  0.00     0.024 A 
HETATM    5  C   LIG     1       2.452  -0.593  -0.246  1.00  0.00    -0.025 A 
HETATM    6  C   LIG     1       3.692  -1.201  -0.501  1.00  0.00     0.012 A 
HETATM    7  C   LIG     1       4.880  -0.525  -0.210  1.00  0.00     0.001 A 
HETATM    8  C   LIG     1       4.842   0.760   0.337  1.00  0.00     0.001 A 
HETATM    9  C   LIG     1       3.615   1.377   0.597  1.00  0.00     0.012 A 
HETATM   10  C   LIG     1       2.414   0.710   0.309  1.00  0.00    -0.025 A 
HETATM   11  C   LIG     1       1.179   1.322   0.566  1.00  0.00     0.024 A 
HETATM   12  C   LIG     1      -0.019   0.651   0.277  1.00  0.00    -0.024 A 
HETATM   13  C   LIG     1      -1.255   1.263   0.535  1.00  0.00     0.024 A 
HETATM   14  C   LIG     1      -2.452   0.593   0.246  1.00  0.00    -0.025 A 
HETATM   15  C   LIG     1      -3.692   1.201   0.501  1.00  0.00     0.012 A 
HETATM   16  C   LIG     1      -4.880   0.525   0.210  1.00  0.00     0.001 A 
HETATM   17  C   LIG     1      -4.842  -0.760  -0.337  1.00  0.00     0.001 A 
HETATM   18  C   LIG     1      -3.615  -1.377  -0.597  1.00  0.00     0.012 A 
ENDROOT
TORSDOF 0
