MODEL 1
REMARK VINA RESULT:      -8.2      0.000      0.000
REMARK  0 active torsions:
REMARK  status: ('A' for Active; 'I' for Inactive)
ROOT
HETATM    1  C   LIG     1      17.248  37.049  22.549  1.00  0.00    -0.025 A 
HETATM    2  C   LIG     1      16.930  36.921  21.189  1.00  0.00     0.024 A 
HETATM    3  C   LIG     1      16.415  35.715  20.691  1.00  0.00    -0.024 A 
HETATM    4  C   LIG     1      16.098  35.587  19.330  1.00  0.00     0.024 A 
HETATM    5  C   LIG     1      15.583  34.382  18.832  1.00  0.00    -0.025 A 
HETATM    6  C   LIG     1      15.263  34.249  17.471  1.00  0.00     0.012 A 
HETATM    7  C   LIG     1      14.751  33.043  16.984  1.00  0.00     0.001 A 
HETATM    8  C   LIG     1      14.554  31.962  17.848  1.00  0.00     0.001 A 
HETATM    9  C   LIG     1      14.868  32.081  19.205  1.00  0.00     0.012 A 
HETATM   10  C   LIG     1      15.383  33.286  19.708  1.00  0.00    -0.025 A 
HETATM   11  C   LIG     1      15.701  33.413  21.067  1.00  0.00     0.024 A 
HETATM   12  C   LIG     1      16.216  34.620  21.565  1.00  0.00    -0.024 A 
HETATM   13  C   LIG     1      16.533  34.747  22.926  1.00  0.00     0.024 A 
HETATM   14  C   LIG     1      17.048  35.953  23.424  1.00  0.00    -0.025 A 
HETATM   15  C   LIG     1      17.368  36.086  24.785  1.00  0.00     0.012 A 
HETATM   16  C   LIG     1      17.880  37.292  25.272  1.00  0.00     0.001 A 
HETATM   17  C   LIG     1      18.077  38.372  24.409  1.00  0.00     0.001 A 
HETATM   18  C   LIG     1      17.763  38.253  23.052  1.00  0.00     0.012 A 
ENDROOT
TORSDOF 0
ENDMDL
MODEL 2
REMARK VINA RESULT:      -8.2      0.072      6.639
REMARK  0 active torsions:
REMARK  status: ('A' for Active; 'I' for Inactive)
ROOT
HETATM    1  C   LIG     1      15.362  33.285  19.777  1.00  0.00    -0.025 A 
HETATM    2  C   LIG     1      15.685  33.437  21.133  1.00  0.00     0.024 A 
HETATM    3  C   LIG     1      16.209  34.650  21.605  1.00  0.00    -0.024 A 
HETATM    4  C   LIG     1      16.533  34.802  22.962  1.00  0.00     0.024 A 
HETATM    5  C   LIG     1      17.056  36.014  23.434  1.00  0.00    -0.025 A 
HETATM    6  C   LIG     1      17.381  36.173  24.791  1.00  0.00     0.012 A 
HETATM    7  C   LIG     1      17.903  37.384  25.252  1.00  0.00     0.001 A 
HETATM    8  C   LIG     1      18.104  38.446  24.367  1.00  0.00     0.001 A 
HETATM    9  C   LIG     1      17.784  38.303  23.014  1.00  0.00     0.012 A 
HETATM   10  C   LIG     1      17.260  37.091  22.536  1.00  0.00    -0.025 A 
HETATM   11  C   LIG     1      16.938  36.939  21.180  1.00  0.00     0.024 A 
HETATM   12  C   LIG     1      16.413  35.726  20.708  1.00  0.00    -0.024 A 
HETATM   13  C   LIG     1      16.089  35.574  19.351  1.00  0.00     0.024 A 
HETATM   14  C   LIG     1      15.566  34.362  18.879  1.00  0.00    -0.025 A 
HETATM   15  C   LIG     1      15.241  34.203  17.522  1.00  0.00     0.012 A 
HETATM   16  C   LIG     1      14.719  32.992  17.061  1.00  0.00     0.001 A 
HETATM   17  C   LIG     1      14.518  31.930  17.946  1.00  0.00     0.001 A 
HETATM   18  C   LIG     1      14.838  32.073  19.299  1.00  0.00     0.012 A 
ENDROOT
TORSDOF 0
ENDMDL
MODEL 3
REMARK VINA RESULT:      -8.2      0.036      6.283
REMARK  0 active torsions:
REMARK  status: ('A' for Active; 'I' for Inactive)
ROOT
HETATM    1  C   LIG     1      15.573  34.376  18.856  1.00  0.00    -0.025 A 
HETATM    2  C   LIG     1      16.090  35.586  19.342  1.00  0.00     0.024 A 
HETATM    3  C   LIG     1      16.412  35.724  20.701  1.00  0.00    -0.024 A 
HETATM    4  C   LIG     1      16.929  36.935  21.188  1.00  0.00     0.024 A 
HETATM    5  C   LIG     1      17.251  37.073  22.545  1.00  0.00    -0.025 A 
HETATM    6  C   LIG     1      17.769  38.282  23.037  1.00  0.00     0.012 A 
HETATM    7  C   LIG     1      18.088  38.411  24.392  1.00  0.00     0.001 A 
HETATM    8  C   LIG     1      17.892  37.338  25.265  1.00  0.00     0.001 A 
HETATM    9  C   LIG     1      17.378  36.129  24.789  1.00  0.00     0.012 A 
HETATM   10  C   LIG     1      17.054  35.986  23.431  1.00  0.00    -0.025 A 
HETATM   11  C   LIG     1      16.537  34.776  22.945  1.00  0.00     0.024 A 
HETATM   12  C   LIG     1      16.214  34.638  21.586  1.00  0.00    -0.024 A 
HETATM   13  C   LIG     1      15.698  33.427  21.099  1.00  0.00     0.024 A 
HETATM   14  C   LIG     1      15.375  33.289  19.742  1.00  0.00    -0.025 A 
HETATM   15  C   LIG     1      14.857  32.080  19.250  1.00  0.00     0.012 A 
HETATM   16  C   LIG     1      14.539  31.951  17.895  1.00  0.00     0.001 A 
HETATM   17  C   LIG     1      14.734  33.024  17.022  1.00  0.00     0.001 A 
HETATM   18  C   LIG     1      15.248  34.233  17.498  1.00  0.00     0.012 A 
ENDROOT
TORSDOF 0
ENDMDL
MODEL 4
REMARK VINA RESULT:      -6.6      6.145      8.990
REMARK  0 active torsions:
REMARK  status: ('A' for Active; 'I' for Inactive)
ROOT
HETATM    1  C   LIG     1      15.038  31.440  14.833  1.00  0.00    -0.025 A 
HETATM    2  C   LIG     1      15.758  31.355  13.633  1.00  0.00     0.024 A 
HETATM    3  C   LIG     1      16.894  32.154  13.430  1.00  0.00    -0.024 A 
HETATM    4  C   LIG     1      17.615  32.071  12.229  1.00  0.00     0.024 A 
HETATM    5  C   LIG     1      18.750  32.868  12.027  1.00  0.00    -0.025 A 
HETATM    6  C   LIG     1      19.476  32.788  10.827  1.00  0.00     0.012 A 
HETATM    7  C   LIG     1      20.606  33.587  10.634  1.00  0.00     0.001 A 
HETATM    8  C   LIG     1      21.021  34.471  11.633  1.00  0.00     0.001 A 
HETATM    9  C   LIG     1      20.308  34.561  12.832  1.00  0.00     0.012 A 
HETATM   10  C   LIG     1      19.171  33.765  13.040  1.00  0.00    -0.025 A 
HETATM   11  C   LIG     1      18.450  33.849  14.239  1.00  0.00     0.024 A 
HETATM   12  C   LIG     1      17.315  33.050  14.442  1.00  0.00    -0.024 A 
HETATM   13  C   LIG     1      16.594  33.134  15.643  1.00  0.00     0.024 A 
HETATM   14  C   LIG     1      15.459  32.336  15.846  1.00  0.00    -0.025 A 
HETATM   15  C   LIG     1      14.733  32.416  17.045  1.00  0.00     0.012 A 
HETATM   16  C   LIG     1      13.603  31.617  17.238  1.00  0.00     0.001 A 
HETATM   17  C   LIG     1      13.188  30.733  16.239  1.00  0.00     0.001 A 
HETATM   18  C   LIG     1      13.901  30.643  15.040  1.00  0.00     0.012 A 
ENDROOT
TORSDOF 0
ENDMDL
MODEL 5
REMARK VINA RESULT:      -6.6      6.125      8.976
REMARK  0 active torsions:
REMARK  status: ('A' for Active; 'I' for Inactive)
ROOT
HETATM    1  C   LIG     1      15.493  32.397  15.815  1.00  0.00    -0.025 A 
HETATM    2  C   LIG     1      16.626  33.196  15.603  1.00  0.00     0.024 A 
HETATM    3  C   LIG     1      17.352  33.094  14.406  1.00  0.00    -0.024 A 
HETATM    4  C   LIG     1      18.486  33.893  14.195  1.00  0.00     0.024 A 
HETATM    5  C   LIG     1      19.211  33.792  12.999  1.00  0.00    -0.025 A 
HETATM    6  C   LIG     1      20.346  34.589  12.781  1.00  0.00     0.012 A 
HETATM    7  C   LIG     1      21.062  34.482  11.586  1.00  0.00     0.001 A 
HETATM    8  C   LIG     1      20.653  33.580  10.600  1.00  0.00     0.001 A 
HETATM    9  C   LIG     1      19.525  32.781  10.802  1.00  0.00     0.012 A 
HETATM   10  C   LIG     1      18.796  32.878  11.998  1.00  0.00    -0.025 A 
HETATM   11  C   LIG     1      17.663  32.080  12.210  1.00  0.00     0.024 A 
HETATM   12  C   LIG     1      16.938  32.181  13.407  1.00  0.00    -0.024 A 
HETATM   13  C   LIG     1      15.803  31.383  13.619  1.00  0.00     0.024 A 
HETATM   14  C   LIG     1      15.079  31.484  14.815  1.00  0.00    -0.025 A 
HETATM   15  C   LIG     1      13.943  30.686  15.033  1.00  0.00     0.012 A 
HETATM   16  C   LIG     1      13.227  30.794  16.228  1.00  0.00     0.001 A 
HETATM   17  C   LIG     1      13.636  31.695  17.214  1.00  0.00     0.001 A 
HETATM   18  C   LIG     1      14.765  32.494  17.011  1.00  0.00     0.012 A 
ENDROOT
TORSDOF 0
ENDMDL
MODEL 6
REMARK VINA RESULT:      -6.4     17.042     19.127
REMARK  0 active torsions:
REMARK  status: ('A' for Active; 'I' for Inactive)
ROOT
HETATM    1  C   LIG     1      27.343  27.700  31.948  1.00  0.00    -0.025 A 
HETATM    2  C   LIG     1      26.554  27.984  33.072  1.00  0.00     0.024 A 
HETATM    3  C   LIG     1      26.974  28.939  34.010  1.00  0.00    -0.024 A 
HETATM    4  C   LIG     1      26.185  29.223  35.135  1.00  0.00     0.024 A 
HETATM    5  C   LIG     1      26.604  30.177  36.072  1.00  0.00    -0.025 A 
HETATM    6  C   LIG     1      25.818  30.466  37.199  1.00  0.00     0.012 A 
HETATM    7  C   LIG     1      26.244  31.419  38.129  1.00  0.00     0.001 A 
HETATM    8  C   LIG     1      27.454  32.092  37.942  1.00  0.00     0.001 A 
HETATM    9  C   LIG     1      28.246  31.815  36.824  1.00  0.00     0.012 A 
HETATM   10  C   LIG     1      27.831  30.860  35.883  1.00  0.00    -0.025 A 
HETATM   11  C   LIG     1      28.620  30.576  34.759  1.00  0.00     0.024 A 
HETATM   12  C   LIG     1      28.200  29.620  33.821  1.00  0.00    -0.024 A 
HETATM   13  C   LIG     1      28.989  29.337  32.696  1.00  0.00     0.024 A 
HETATM   14  C   LIG     1      28.570  28.382  31.759  1.00  0.00    -0.025 A 
HETATM   15  C   LIG     1      29.356  28.093  30.631  1.00  0.00     0.012 A 
HETATM   16  C   LIG     1      28.930  27.140  29.702  1.00  0.00     0.001 A 
HETATM   17  C   LIG     1      27.720  26.468  29.889  1.00  0.00     0.001 A 
HETATM   18  C   LIG     1      26.928  26.744  31.007  1.00  0.00     0.012 A 
ENDROOT
TORSDOF 0
ENDMDL
MODEL 7
REMARK VINA RESULT:      -6.3     17.041     18.197
REMARK  0 active torsions:
REMARK  status: ('A' for Active; 'I' for Inactive)
ROOT
HETATM    1  C   LIG     1      26.599  30.157  36.069  1.00  0.00    -0.025 A 
HETATM    2  C   LIG     1      26.185  29.200  35.132  1.00  0.00     0.024 A 
HETATM    3  C   LIG     1      26.973  28.926  34.003  1.00  0.00    -0.024 A 
HETATM    4  C   LIG     1      26.558  27.969  33.065  1.00  0.00     0.024 A 
HETATM    5  C   LIG     1      27.345  27.694  31.937  1.00  0.00    -0.025 A 
HETATM    6  C   LIG     1      26.936  26.737  30.995  1.00  0.00     0.012 A 
HETATM    7  C   LIG     1      27.727  26.470  29.874  1.00  0.00     0.001 A 
HETATM    8  C   LIG     1      28.930  27.154  29.683  1.00  0.00     0.001 A 
HETATM    9  C   LIG     1      29.350  28.109  30.613  1.00  0.00     0.012 A 
HETATM   10  C   LIG     1      28.565  28.388  31.744  1.00  0.00    -0.025 A 
HETATM   11  C   LIG     1      28.979  29.345  32.681  1.00  0.00     0.024 A 
HETATM   12  C   LIG     1      28.192  29.619  33.810  1.00  0.00    -0.024 A 
HETATM   13  C   LIG     1      28.606  30.576  34.748  1.00  0.00     0.024 A 
HETATM   14  C   LIG     1      27.819  30.851  35.876  1.00  0.00    -0.025 A 
HETATM   15  C   LIG     1      28.229  31.808  36.818  1.00  0.00     0.012 A 
HETATM   16  C   LIG     1      27.438  32.075  37.939  1.00  0.00     0.001 A 
HETATM   17  C   LIG     1      26.235  31.391  38.129  1.00  0.00     0.001 A 
HETATM   18  C   LIG     1      25.815  30.435  37.199  1.00  0.00     0.012 A 
ENDROOT
TORSDOF 0
ENDMDL
MODEL 8
REMARK VINA RESULT:      -6.3     17.016     19.070
REMARK  0 active torsions:
REMARK  status: ('A' for Active; 'I' for Inactive)
ROOT
HETATM    1  C   LIG     1      28.607  28.413  31.772  1.00  0.00    -0.025 A 
HETATM    2  C   LIG     1      29.036  29.356  32.716  1.00  0.00     0.024 A 
HETATM    3  C   LIG     1      28.241  29.652  33.834  1.00  0.00    -0.024 A 
HETATM    4  C   LIG     1      28.670  30.597  34.779  1.00  0.00     0.024 A 
HETATM    5  C   LIG     1      27.877  30.893  35.897  1.00  0.00    -0.025 A 
HETATM    6  C   LIG     1      28.301  31.836  36.846  1.00  0.00     0.012 A 
HETATM    7  C   LIG     1      27.503  32.125  37.957  1.00  0.00     0.001 A 
HETATM    8  C   LIG     1      26.278  31.476  38.129  1.00  0.00     0.001 A 
HETATM    9  C   LIG     1      25.843  30.534  37.193  1.00  0.00     0.012 A 
HETATM   10  C   LIG     1      26.634  30.235  36.072  1.00  0.00    -0.025 A 
HETATM   11  C   LIG     1      26.205  29.292  35.128  1.00  0.00     0.024 A 
HETATM   12  C   LIG     1      27.000  28.996  34.010  1.00  0.00    -0.024 A 
HETATM   13  C   LIG     1      26.571  28.052  33.065  1.00  0.00     0.024 A 
HETATM   14  C   LIG     1      27.364  27.756  31.948  1.00  0.00    -0.025 A 
HETATM   15  C   LIG     1      26.940  26.812  30.998  1.00  0.00     0.012 A 
HETATM   16  C   LIG     1      27.738  26.524  29.888  1.00  0.00     0.001 A 
HETATM   17  C   LIG     1      28.963  27.172  29.715  1.00  0.00     0.001 A 
HETATM   18  C   LIG     1      29.398  28.114  30.651  1.00  0.00     0.012 A 
ENDROOT
TORSDOF 0
ENDMDL
MODEL 9
REMARK VINA RESULT:      -6.3      6.121     11.757
REMARK  0 active torsions:
REMARK  status: ('A' for Active; 'I' for Inactive)
ROOT
HETATM    1  C   LIG     1      13.146  26.894  12.618  1.00  0.00    -0.025 A 
HETATM    2  C   LIG     1      12.615  27.775  13.570  1.00  0.00     0.024 A 
HETATM    3  C   LIG     1      13.413  28.792  14.118  1.00  0.00    -0.024 A 
HETATM    4  C   LIG     1      12.882  29.674  15.071  1.00  0.00     0.024 A 
HETATM    5  C   LIG     1      13.679  30.689  15.619  1.00  0.00    -0.025 A 
HETATM    6  C   LIG     1      13.153  31.576  16.573  1.00  0.00     0.012 A 
HETATM    7  C   LIG     1      13.955  32.585  17.113  1.00  0.00     0.001 A 
HETATM    8  C   LIG     1      15.285  32.719  16.707  1.00  0.00     0.001 A 
HETATM    9  C   LIG     1      15.822  31.844  15.758  1.00  0.00     0.012 A 
HETATM   10  C   LIG     1      15.028  30.826  15.207  1.00  0.00    -0.025 A 
HETATM   11  C   LIG     1      15.558  29.944  14.255  1.00  0.00     0.024 A 
HETATM   12  C   LIG     1      14.761  28.928  13.707  1.00  0.00    -0.024 A 
HETATM   13  C   LIG     1      15.291  28.046  12.754  1.00  0.00     0.024 A 
HETATM   14  C   LIG     1      14.495  27.030  12.206  1.00  0.00    -0.025 A 
HETATM   15  C   LIG     1      15.020  26.144  11.253  1.00  0.00     0.012 A 
HETATM   16  C   LIG     1      14.218  25.135  10.712  1.00  0.00     0.001 A 
HETATM   17  C   LIG     1      12.888  25.001  11.118  1.00  0.00     0.001 A 
HETATM   18  C   LIG     1      12.352  25.875  12.068  1.00  0.00     0.012 A 
ENDROOT
TORSDOF 0
ENDMDL
MODEL 10
REMARK VINA RESULT:      -6.3      6.599     10.653
REMARK  0 active torsions:
REMARK  status: ('A' for Active; 'I' for Inactive)
ROOT
HETATM    1  C   LIG     1      13.442  30.211  15.282  1.00  0.00    -0.025 A 
HETATM    2  C   LIG     1      12.646  29.204  14.717  1.00  0.00     0.024 A 
HETATM    3  C   LIG     1      13.187  28.321  13.769  1.00  0.00    -0.024 A 
HETATM    4  C   LIG     1      12.390  27.314  13.203  1.00  0.00     0.024 A 
HETATM    5  C   LIG     1      12.930  26.431  12.257  1.00  0.00    -0.025 A 
HETATM    6  C   LIG     1      12.138  25.420  11.688  1.00  0.00     0.012 A 
HETATM    7  C   LIG     1      12.685  24.546  10.745  1.00  0.00     0.001 A 
HETATM    8  C   LIG     1      14.023  24.670  10.363  1.00  0.00     0.001 A 
HETATM    9  C   LIG     1      14.823  25.671  10.922  1.00  0.00     0.012 A 
HETATM   10  C   LIG     1      14.287  26.557  11.869  1.00  0.00    -0.025 A 
HETATM   11  C   LIG     1      15.082  27.564  12.434  1.00  0.00     0.024 A 
HETATM   12  C   LIG     1      14.542  28.447  13.381  1.00  0.00    -0.024 A 
HETATM   13  C   LIG     1      15.338  29.454  13.947  1.00  0.00     0.024 A 
HETATM   14  C   LIG     1      14.799  30.337  14.894  1.00  0.00    -0.025 A 
HETATM   15  C   LIG     1      15.590  31.348  15.463  1.00  0.00     0.012 A 
HETATM   16  C   LIG     1      15.044  32.223  16.405  1.00  0.00     0.001 A 
HETATM   17  C   LIG     1      13.706  32.098  16.788  1.00  0.00     0.001 A 
HETATM   18  C   LIG     1      12.906  31.097  16.229  1.00  0.00     0.012 A 
ENDROOT
TORSDOF 0
ENDMDL
MODEL 11
REMARK VINA RESULT:      -6.2     14.543     15.684
REMARK  0 active torsions:
REMARK  status: ('A' for Active; 'I' for Inactive)
ROOT
HETATM    1  C   LIG     1      27.973  25.019  17.578  1.00  0.00    -0.025 A 
HETATM    2  C   LIG     1      27.287  23.796  17.568  1.00  0.00     0.024 A 
HETATM    3  C   LIG     1      26.376  23.485  18.589  1.00  0.00    -0.024 A 
HETATM    4  C   LIG     1      25.691  22.261  18.579  1.00  0.00     0.024 A 
HETATM    5  C   LIG     1      24.780  21.950  19.599  1.00  0.00    -0.025 A 
HETATM    6  C   LIG     1      24.090  20.727  19.594  1.00  0.00     0.012 A 
HETATM    7  C   LIG     1      23.184  20.426  20.615  1.00  0.00     0.001 A 
HETATM    8  C   LIG     1      22.959  21.341  21.647  1.00  0.00     0.001 A 
HETATM    9  C   LIG     1      23.638  22.562  21.664  1.00  0.00     0.012 A 
HETATM   10  C   LIG     1      24.551  22.877  20.646  1.00  0.00    -0.025 A 
HETATM   11  C   LIG     1      25.237  24.100  20.656  1.00  0.00     0.024 A 
HETATM   12  C   LIG     1      26.148  24.411  19.635  1.00  0.00    -0.024 A 
HETATM   13  C   LIG     1      26.834  25.635  19.644  1.00  0.00     0.024 A 
HETATM   14  C   LIG     1      27.744  25.946  18.625  1.00  0.00    -0.025 A 
HETATM   15  C   LIG     1      28.435  27.169  18.630  1.00  0.00     0.012 A 
HETATM   16  C   LIG     1      29.340  27.470  17.608  1.00  0.00     0.001 A 
HETATM   17  C   LIG     1      29.565  26.555  16.576  1.00  0.00     0.001 A 
HETATM   18  C   LIG     1      28.886  25.334  16.559  1.00  0.00     0.012 A 
ENDROOT
TORSDOF 0
ENDMDL
MODEL 12
REMARK VINA RESULT:      -6.2     14.564     15.707
REMARK  0 active torsions:
REMARK  status: ('A' for Active; 'I' for Inactive)
ROOT
HETATM    1  C   LIG     1      27.742  25.940  18.634  1.00  0.00    -0.025 A 
HETATM    2  C   LIG     1      26.837  25.624  19.657  1.00  0.00     0.024 A 
HETATM    3  C   LIG     1      26.165  24.392  19.655  1.00  0.00    -0.024 A 
HETATM    4  C   LIG     1      25.259  24.076  20.678  1.00  0.00     0.024 A 
HETATM    5  C   LIG     1      24.587  22.846  20.676  1.00  0.00    -0.025 A 
HETATM    6  C   LIG     1      23.680  22.524  21.698  1.00  0.00     0.012 A 
HETATM    7  C   LIG     1      23.015  21.295  21.687  1.00  0.00     0.001 A 
HETATM    8  C   LIG     1      23.249  20.378  20.659  1.00  0.00     0.001 A 
HETATM    9  C   LIG     1      24.150  20.684  19.636  1.00  0.00     0.012 A 
HETATM   10  C   LIG     1      24.825  21.915  19.634  1.00  0.00    -0.025 A 
HETATM   11  C   LIG     1      25.730  22.231  18.611  1.00  0.00     0.024 A 
HETATM   12  C   LIG     1      26.402  23.463  18.614  1.00  0.00    -0.024 A 
HETATM   13  C   LIG     1      27.308  23.779  17.590  1.00  0.00     0.024 A 
HETATM   14  C   LIG     1      27.980  25.009  17.592  1.00  0.00    -0.025 A 
HETATM   15  C   LIG     1      28.887  25.331  16.570  1.00  0.00     0.012 A 
HETATM   16  C   LIG     1      29.552  26.560  16.581  1.00  0.00     0.001 A 
HETATM   17  C   LIG     1      29.318  27.477  17.609  1.00  0.00     0.001 A 
HETATM   18  C   LIG     1      28.417  27.171  18.632  1.00  0.00     0.012 A 
ENDROOT
TORSDOF 0
ENDMDL
MODEL 13
REMARK VINA RESULT:      -6.2     14.517     15.972
REMARK  0 active torsions:
REMARK  status: ('A' for Active; 'I' for Inactive)
ROOT
HETATM    1  C   LIG     1      24.778  21.984  19.655  1.00  0.00    -0.025 A 
HETATM    2  C   LIG     1      25.688  22.283  18.631  1.00  0.00     0.024 A 
HETATM    3  C   LIG     1      26.376  23.506  18.627  1.00  0.00    -0.024 A 
HETATM    4  C   LIG     1      27.286  23.806  17.602  1.00  0.00     0.024 A 
HETATM    5  C   LIG     1      27.973  25.027  17.599  1.00  0.00    -0.025 A 
HETATM    6  C   LIG     1      28.886  25.332  16.576  1.00  0.00     0.012 A 
HETATM    7  C   LIG     1      29.566  26.553  16.581  1.00  0.00     0.001 A 
HETATM    8  C   LIG     1      29.343  27.478  17.604  1.00  0.00     0.001 A 
HETATM    9  C   LIG     1      28.438  27.188  18.629  1.00  0.00     0.012 A 
HETATM   10  C   LIG     1      27.747  25.966  18.636  1.00  0.00    -0.025 A 
HETATM   11  C   LIG     1      26.837  25.667  19.660  1.00  0.00     0.024 A 
HETATM   12  C   LIG     1      26.150  24.443  19.663  1.00  0.00    -0.024 A 
HETATM   13  C   LIG     1      25.240  24.144  20.689  1.00  0.00     0.024 A 
HETATM   14  C   LIG     1      24.552  22.922  20.692  1.00  0.00    -0.025 A 
HETATM   15  C   LIG     1      23.640  22.617  21.715  1.00  0.00     0.012 A 
HETATM   16  C   LIG     1      22.959  21.396  21.710  1.00  0.00     0.001 A 
HETATM   17  C   LIG     1      23.183  20.471  20.687  1.00  0.00     0.001 A 
HETATM   18  C   LIG     1      24.087  20.762  19.662  1.00  0.00     0.012 A 
ENDROOT
TORSDOF 0
ENDMDL
MODEL 14
REMARK VINA RESULT:      -6.2     14.827     15.872
REMARK  0 active torsions:
REMARK  status: ('A' for Active; 'I' for Inactive)
ROOT
HETATM    1  C   LIG     1      26.275  24.261  19.209  1.00  0.00    -0.025 A 
HETATM    2  C   LIG     1      25.405  23.551  18.370  1.00  0.00     0.024 A 
HETATM    3  C   LIG     1      24.791  22.371  18.819  1.00  0.00    -0.024 A 
HETATM    4  C   LIG     1      23.922  21.660  17.978  1.00  0.00     0.024 A 
HETATM    5  C   LIG     1      23.309  20.482  18.427  1.00  0.00    -0.025 A 
HETATM    6  C   LIG     1      22.437  19.766  17.590  1.00  0.00     0.012 A 
HETATM    7  C   LIG     1      21.830  18.592  18.046  1.00  0.00     0.001 A 
HETATM    8  C   LIG     1      22.087  18.124  19.337  1.00  0.00     0.001 A 
HETATM    9  C   LIG     1      22.951  18.826  20.181  1.00  0.00     0.012 A 
HETATM   10  C   LIG     1      23.568  20.006  19.736  1.00  0.00    -0.025 A 
HETATM   11  C   LIG     1      24.438  20.717  20.575  1.00  0.00     0.024 A 
HETATM   12  C   LIG     1      25.051  21.896  20.126  1.00  0.00    -0.024 A 
HETATM   13  C   LIG     1      25.921  22.608  20.967  1.00  0.00     0.024 A 
HETATM   14  C   LIG     1      26.534  23.786  20.519  1.00  0.00    -0.025 A 
HETATM   15  C   LIG     1      27.406  24.502  21.355  1.00  0.00     0.012 A 
HETATM   16  C   LIG     1      28.013  25.675  20.899  1.00  0.00     0.001 A 
HETATM   17  C   LIG     1      27.756  26.144  19.608  1.00  0.00     0.001 A 
HETATM   18  C   LIG     1      26.891  25.441  18.765  1.00  0.00     0.012 A 
ENDROOT
TORSDOF 0
ENDMDL
MODEL 15
REMARK VINA RESULT:      -5.8     15.195     16.756
REMARK  0 active torsions:
REMARK  status: ('A' for Active; 'I' for Inactive)
ROOT
HETATM    1  C   LIG     1      23.569  21.419  20.519  1.00  0.00    -0.025 A 
HETATM    2  C   LIG     1      23.189  20.905  21.766  1.00  0.00     0.024 A 
HETATM    3  C   LIG     1      23.764  21.405  22.945  1.00  0.00    -0.024 A 
HETATM    4  C   LIG     1      23.384  20.890  24.193  1.00  0.00     0.024 A 
HETATM    5  C   LIG     1      23.958  21.389  25.371  1.00  0.00    -0.025 A 
HETATM    6  C   LIG     1      23.581  20.878  26.623  1.00  0.00     0.012 A 
HETATM    7  C   LIG     1      24.159  21.382  27.792  1.00  0.00     0.001 A 
HETATM    8  C   LIG     1      25.116  22.397  27.721  1.00  0.00     0.001 A 
HETATM    9  C   LIG     1      25.500  22.916  26.482  1.00  0.00     0.012 A 
HETATM   10  C   LIG     1      24.928  22.419  25.300  1.00  0.00    -0.025 A 
HETATM   11  C   LIG     1      25.309  22.933  24.052  1.00  0.00     0.024 A 
HETATM   12  C   LIG     1      24.734  22.433  22.874  1.00  0.00    -0.024 A 
HETATM   13  C   LIG     1      25.114  22.948  21.625  1.00  0.00     0.024 A 
HETATM   14  C   LIG     1      24.539  22.449  20.448  1.00  0.00    -0.025 A 
HETATM   15  C   LIG     1      24.917  22.960  19.195  1.00  0.00     0.012 A 
HETATM   16  C   LIG     1      24.338  22.456  18.027  1.00  0.00     0.001 A 
HETATM   17  C   LIG     1      23.381  21.441  18.097  1.00  0.00     0.001 A 
HETATM   18  C   LIG     1      22.997  20.922  19.337  1.00  0.00     0.012 A 
ENDROOT
TORSDOF 0
ENDMDL
MODEL 16
REMARK VINA RESULT:      -5.8     16.885     17.545
REMARK  0 active torsions:
REMARK  status: ('A' for Active; 'I' for Inactive)
ROOT
HETATM    1  C   LIG     1      27.055  29.193  34.434  1.00  0.00    -0.025 A 
HETATM    2  C   LIG     1      26.604  28.141  33.624  1.00  0.00     0.024 A 
HETATM    3  C   LIG     1      27.241  27.861  32.405  1.00  0.00    -0.024 A 
HETATM    4  C   LIG     1      26.790  26.809  31.594  1.00  0.00     0.024 A 
HETATM    5  C   LIG     1      27.426  26.529  30.377  1.00  0.00    -0.025 A 
HETATM    6  C   LIG     1      26.979  25.476  29.561  1.00  0.00     0.012 A 
HETATM    7  C   LIG     1      27.620  25.205  28.349  1.00  0.00     0.001 A 
HETATM    8  C   LIG     1      28.710  25.978  27.941  1.00  0.00     0.001 A 
HETATM    9  C   LIG     1      29.166  27.028  28.743  1.00  0.00     0.012 A 
HETATM   10  C   LIG     1      28.532  27.312  29.963  1.00  0.00    -0.025 A 
HETATM   11  C   LIG     1      28.982  28.364  30.773  1.00  0.00     0.024 A 
HETATM   12  C   LIG     1      28.345  28.644  31.991  1.00  0.00    -0.024 A 
HETATM   13  C   LIG     1      28.797  29.696  32.803  1.00  0.00     0.024 A 
HETATM   14  C   LIG     1      28.160  29.976  34.020  1.00  0.00    -0.025 A 
HETATM   15  C   LIG     1      28.607  31.028  34.836  1.00  0.00     0.012 A 
HETATM   16  C   LIG     1      27.967  31.300  36.047  1.00  0.00     0.001 A 
HETATM   17  C   LIG     1      26.877  30.527  36.455  1.00  0.00     0.001 A 
HETATM   18  C   LIG     1      26.421  29.477  35.653  1.00  0.00     0.012 A 
ENDROOT
TORSDOF 0
ENDMDL
MODEL 17
REMARK VINA RESULT:      -5.7     15.074     16.281
REMARK  0 active torsions:
REMARK  status: ('A' for Active; 'I' for Inactive)
ROOT
HETATM    1  C   LIG     1      27.695  25.464  18.439  1.00  0.00    -0.025 A 
HETATM    2  C   LIG     1      26.376  25.010  18.586  1.00  0.00     0.024 A 
HETATM    3  C   LIG     1      26.054  23.670  18.323  1.00  0.00    -0.024 A 
HETATM    4  C   LIG     1      24.734  23.216  18.469  1.00  0.00     0.024 A 
HETATM    5  C   LIG     1      24.412  21.877  18.208  1.00  0.00    -0.025 A 
HETATM    6  C   LIG     1      23.093  21.416  18.353  1.00  0.00     0.012 A 
HETATM    7  C   LIG     1      22.782  20.080  18.090  1.00  0.00     0.001 A 
HETATM    8  C   LIG     1      23.780  19.192  17.681  1.00  0.00     0.001 A 
HETATM    9  C   LIG     1      25.097  19.636  17.532  1.00  0.00     0.012 A 
HETATM   10  C   LIG     1      25.424  20.976  17.793  1.00  0.00    -0.025 A 
HETATM   11  C   LIG     1      26.743  21.430  17.646  1.00  0.00     0.024 A 
HETATM   12  C   LIG     1      27.065  22.771  17.908  1.00  0.00    -0.024 A 
HETATM   13  C   LIG     1      28.385  23.225  17.762  1.00  0.00     0.024 A 
HETATM   14  C   LIG     1      28.707  24.564  18.024  1.00  0.00    -0.025 A 
HETATM   15  C   LIG     1      30.026  25.024  17.878  1.00  0.00     0.012 A 
HETATM   16  C   LIG     1      30.337  26.361  18.142  1.00  0.00     0.001 A 
HETATM   17  C   LIG     1      29.339  27.248  18.551  1.00  0.00     0.001 A 
HETATM   18  C   LIG     1      28.022  26.804  18.699  1.00  0.00     0.012 A 
ENDROOT
TORSDOF 0
ENDMDL
MODEL 18
REMARK VINA RESULT:      -5.7     14.564     15.499
REMARK  0 active torsions:
REMARK  status: ('A' for Active; 'I' for Inactive)
ROOT
HETATM    1  C   LIG     1      28.055  26.177  19.193  1.00  0.00    -0.025 A 
HETATM    2  C   LIG     1      26.766  25.625  19.178  1.00  0.00     0.024 A 
HETATM    3  C   LIG     1      26.381  24.694  20.155  1.00  0.00    -0.024 A 
HETATM    4  C   LIG     1      25.092  24.141  20.140  1.00  0.00     0.024 A 
HETATM    5  C   LIG     1      24.707  23.212  21.116  1.00  0.00    -0.025 A 
HETATM    6  C   LIG     1      23.418  22.656  21.106  1.00  0.00     0.012 A 
HETATM    7  C   LIG     1      23.043  21.730  22.083  1.00  0.00     0.001 A 
HETATM    8  C   LIG     1      23.950  21.351  23.077  1.00  0.00     0.001 A 
HETATM    9  C   LIG     1      25.236  21.897  23.100  1.00  0.00     0.012 A 
HETATM   10  C   LIG     1      25.626  22.827  22.124  1.00  0.00    -0.025 A 
HETATM   11  C   LIG     1      26.915  23.379  22.139  1.00  0.00     0.024 A 
HETATM   12  C   LIG     1      27.299  24.310  21.162  1.00  0.00    -0.024 A 
HETATM   13  C   LIG     1      28.589  24.863  21.177  1.00  0.00     0.024 A 
HETATM   14  C   LIG     1      28.974  25.792  20.201  1.00  0.00    -0.025 A 
HETATM   15  C   LIG     1      30.263  26.348  20.211  1.00  0.00     0.012 A 
HETATM   16  C   LIG     1      30.637  27.274  19.233  1.00  0.00     0.001 A 
HETATM   17  C   LIG     1      29.731  27.653  18.240  1.00  0.00     0.001 A 
HETATM   18  C   LIG     1      28.445  27.107  18.217  1.00  0.00     0.012 A 
ENDROOT
TORSDOF 0
ENDMDL
MODEL 19
REMARK VINA RESULT:      -5.7     14.518     15.565
REMARK  0 active torsions:
REMARK  status: ('A' for Active; 'I' for Inactive)
ROOT
HETATM    1  C   LIG     1      28.861  25.637  20.283  1.00  0.00    -0.025 A 
HETATM    2  C   LIG     1      28.422  24.740  21.268  1.00  0.00     0.024 A 
HETATM    3  C   LIG     1      27.129  24.198  21.209  1.00  0.00    -0.024 A 
HETATM    4  C   LIG     1      26.690  23.302  22.194  1.00  0.00     0.024 A 
HETATM    5  C   LIG     1      25.398  22.759  22.135  1.00  0.00    -0.025 A 
HETATM    6  C   LIG     1      24.954  21.861  23.118  1.00  0.00     0.012 A 
HETATM    7  C   LIG     1      23.664  21.326  23.051  1.00  0.00     0.001 A 
HETATM    8  C   LIG     1      22.809  21.681  22.005  1.00  0.00     0.001 A 
HETATM    9  C   LIG     1      23.239  22.573  21.018  1.00  0.00     0.012 A 
HETATM   10  C   LIG     1      24.531  23.119  21.074  1.00  0.00    -0.025 A 
HETATM   11  C   LIG     1      24.970  24.015  20.089  1.00  0.00     0.024 A 
HETATM   12  C   LIG     1      26.263  24.558  20.149  1.00  0.00    -0.024 A 
HETATM   13  C   LIG     1      26.702  25.454  19.163  1.00  0.00     0.024 A 
HETATM   14  C   LIG     1      27.993  25.996  19.222  1.00  0.00    -0.025 A 
HETATM   15  C   LIG     1      28.438  26.895  18.239  1.00  0.00     0.012 A 
HETATM   16  C   LIG     1      29.728  27.430  18.306  1.00  0.00     0.001 A 
HETATM   17  C   LIG     1      30.582  27.075  19.353  1.00  0.00     0.001 A 
HETATM   18  C   LIG     1      30.153  26.182  20.339  1.00  0.00     0.012 A 
ENDROOT
TORSDOF 0
ENDMDL
