MODEL 1
REMARK VINA RESULT:      -7.8      0.000      0.000
REMARK  2 active torsions:
REMARK  status: ('A' for Active; 'I' for Inactive)
REMARK    1  A    between atoms: N_1  and  C_2 
REMARK    2  A    between atoms: C_5  and  C_6 
ROOT
HETATM    1  C   LIG     1      17.763  33.310  13.320  1.00  0.00     0.109 A 
HETATM    2  N   LIG     1      17.073  32.199  12.955  1.00  0.00    -0.240 NA
HETATM    3  C   LIG     1      16.181  31.833  13.910  1.00  0.00     0.075 A 
HETATM    4  C   LIG     1      15.329  30.734  13.811  1.00  0.00     0.033 A 
HETATM    5  C   LIG     1      14.446  30.465  14.871  1.00  0.00     0.009 A 
HETATM    6  C   LIG     1      14.432  31.285  16.024  1.00  0.00    -0.061 A 
HETATM    7  C   LIG     1      13.459  31.010  17.132  1.00  0.00     0.048 C 
HETATM    8  C   LIG     1      15.292  32.400  16.099  1.00  0.00     0.028 A 
HETATM    9  C   LIG     1      16.153  32.640  15.033  1.00  0.00     0.036 A 
HETATM   10  S   LIG     1      17.278  33.870  14.849  1.00  0.00    -0.067 SA
ENDROOT
BRANCH   1  11
HETATM   11  C   LIG     1      18.803  33.934  12.468  1.00  0.00    -0.000 A 
HETATM   12  C   LIG     1      18.440  34.600  11.283  1.00  0.00     0.016 A 
HETATM   13  C   LIG     1      19.413  35.192  10.474  1.00  0.00     0.030 A 
HETATM   14  C   LIG     1      20.765  35.127  10.834  1.00  0.00     0.025 A 
HETATM   15  C   LIG     1      21.135  34.467  12.012  1.00  0.00     0.030 A 
HETATM   16  C   LIG     1      20.163  33.874  12.824  1.00  0.00     0.016 A 
BRANCH  14  17
HETATM   17  N   LIG     1      21.761  35.733  10.005  1.00  0.00    -0.399 N 
HETATM   18  H   LIG     1      21.703  36.745   9.751  1.00  0.00     0.156 HD
HETATM   19  H   LIG     1      22.564  35.174   9.639  1.00  0.00     0.156 HD
ENDBRANCH  14  17
ENDBRANCH   1  11
TORSDOF 2
ENDMDL
MODEL 2
REMARK VINA RESULT:      -7.5      6.431      8.870
REMARK  2 active torsions:
REMARK  status: ('A' for Active; 'I' for Inactive)
REMARK    1  A    between atoms: N_1  and  C_2 
REMARK    2  A    between atoms: C_5  and  C_6 
ROOT
HETATM    1  C   LIG     1      15.669  34.638  20.581  1.00  0.00     0.109 A 
HETATM    2  N   LIG     1      15.806  35.028  19.288  1.00  0.00    -0.240 NA
HETATM    3  C   LIG     1      15.411  34.053  18.430  1.00  0.00     0.075 A 
HETATM    4  C   LIG     1      15.433  34.170  17.041  1.00  0.00     0.033 A 
HETATM    5  C   LIG     1      14.991  33.086  16.264  1.00  0.00     0.009 A 
HETATM    6  C   LIG     1      14.544  31.892  16.879  1.00  0.00    -0.061 A 
HETATM    7  C   LIG     1      14.038  30.757  16.040  1.00  0.00     0.048 C 
HETATM    8  C   LIG     1      14.515  31.799  18.285  1.00  0.00     0.028 A 
HETATM    9  C   LIG     1      14.959  32.889  19.027  1.00  0.00     0.036 A 
HETATM   10  S   LIG     1      15.046  33.061  20.692  1.00  0.00    -0.067 SA
ENDROOT
BRANCH   1  11
HETATM   11  C   LIG     1      16.024  35.503  21.731  1.00  0.00    -0.000 A 
HETATM   12  C   LIG     1      15.471  36.792  21.842  1.00  0.00     0.016 A 
HETATM   13  C   LIG     1      15.801  37.615  22.923  1.00  0.00     0.030 A 
HETATM   14  C   LIG     1      16.689  37.165  23.909  1.00  0.00     0.025 A 
HETATM   15  C   LIG     1      17.243  35.882  23.804  1.00  0.00     0.030 A 
HETATM   16  C   LIG     1      16.915  35.058  22.724  1.00  0.00     0.016 A 
BRANCH  14  17
HETATM   17  N   LIG     1      17.025  38.007  25.014  1.00  0.00    -0.399 N 
HETATM   18  H   LIG     1      16.617  37.837  25.960  1.00  0.00     0.156 HD
HETATM   19  H   LIG     1      17.686  38.807  24.895  1.00  0.00     0.156 HD
ENDBRANCH  14  17
ENDBRANCH   1  11
TORSDOF 2
ENDMDL
MODEL 3
REMARK VINA RESULT:      -7.3      7.092      9.442
REMARK  2 active torsions:
REMARK  status: ('A' for Active; 'I' for Inactive)
REMARK    1  A    between atoms: N_1  and  C_2 
REMARK    2  A    between atoms: C_5  and  C_6 
ROOT
HETATM    1  C   LIG     1      16.057  34.965  21.303  1.00  0.00     0.109 A 
HETATM    2  N   LIG     1      15.577  33.700  21.424  1.00  0.00    -0.240 NA
HETATM    3  C   LIG     1      15.273  33.167  20.213  1.00  0.00     0.075 A 
HETATM    4  C   LIG     1      14.765  31.882  20.024  1.00  0.00     0.033 A 
HETATM    5  C   LIG     1      14.496  31.448  18.715  1.00  0.00     0.009 A 
HETATM    6  C   LIG     1      14.722  32.303  17.610  1.00  0.00    -0.061 A 
HETATM    7  C   LIG     1      14.467  31.814  16.215  1.00  0.00     0.048 C 
HETATM    8  C   LIG     1      15.249  33.593  17.821  1.00  0.00     0.028 A 
HETATM    9  C   LIG     1      15.506  33.994  19.128  1.00  0.00     0.036 A 
HETATM   10  S   LIG     1      16.118  35.455  19.677  1.00  0.00    -0.067 SA
ENDROOT
BRANCH   1  11
HETATM   11  C   LIG     1      16.470  35.788  22.464  1.00  0.00    -0.000 A 
HETATM   12  C   LIG     1      16.356  37.189  22.412  1.00  0.00     0.016 A 
HETATM   13  C   LIG     1      16.743  37.975  23.502  1.00  0.00     0.030 A 
HETATM   14  C   LIG     1      17.252  37.373  24.660  1.00  0.00     0.025 A 
HETATM   15  C   LIG     1      17.369  35.978  24.719  1.00  0.00     0.030 A 
HETATM   16  C   LIG     1      16.982  35.191  23.630  1.00  0.00     0.016 A 
BRANCH  14  17
HETATM   17  N   LIG     1      17.649  38.177  25.775  1.00  0.00    -0.399 N 
HETATM   18  H   LIG     1      18.497  38.784  25.722  1.00  0.00     0.156 HD
HETATM   19  H   LIG     1      17.096  38.171  26.661  1.00  0.00     0.156 HD
ENDBRANCH  14  17
ENDBRANCH   1  11
TORSDOF 2
ENDMDL
MODEL 4
REMARK VINA RESULT:      -7.3      6.293      8.927
REMARK  2 active torsions:
REMARK  status: ('A' for Active; 'I' for Inactive)
REMARK    1  A    between atoms: N_1  and  C_2 
REMARK    2  A    between atoms: C_5  and  C_6 
ROOT
HETATM    1  C   LIG     1      15.855  34.734  19.984  1.00  0.00     0.109 A 
HETATM    2  N   LIG     1      16.791  35.684  19.727  1.00  0.00    -0.240 NA
HETATM    3  C   LIG     1      17.059  36.428  20.830  1.00  0.00     0.075 A 
HETATM    4  C   LIG     1      17.981  37.474  20.869  1.00  0.00     0.033 A 
HETATM    5  C   LIG     1      18.170  38.164  22.078  1.00  0.00     0.009 A 
HETATM    6  C   LIG     1      17.428  37.815  23.232  1.00  0.00    -0.061 A 
HETATM    7  C   LIG     1      17.666  38.534  24.526  1.00  0.00     0.048 C 
HETATM    8  C   LIG     1      16.511  36.745  23.176  1.00  0.00     0.028 A 
HETATM    9  C   LIG     1      16.347  36.081  21.965  1.00  0.00     0.036 A 
HETATM   10  S   LIG     1      15.336  34.794  21.601  1.00  0.00    -0.067 SA
ENDROOT
BRANCH   1  11
HETATM   11  C   LIG     1      15.370  33.777  18.962  1.00  0.00    -0.000 A 
HETATM   12  C   LIG     1      15.267  34.173  17.617  1.00  0.00     0.016 A 
HETATM   13  C   LIG     1      14.810  33.277  16.645  1.00  0.00     0.030 A 
HETATM   14  C   LIG     1      14.448  31.972  17.003  1.00  0.00     0.025 A 
HETATM   15  C   LIG     1      14.548  31.570  18.342  1.00  0.00     0.030 A 
HETATM   16  C   LIG     1      15.005  32.465  19.314  1.00  0.00     0.016 A 
BRANCH  14  17
HETATM   17  N   LIG     1      13.980  31.056  16.010  1.00  0.00    -0.399 N 
HETATM   18  H   LIG     1      13.804  30.054  16.246  1.00  0.00     0.156 HD
HETATM   19  H   LIG     1      13.807  31.373  15.030  1.00  0.00     0.156 HD
ENDBRANCH  14  17
ENDBRANCH   1  11
TORSDOF 2
ENDMDL
MODEL 5
REMARK VINA RESULT:      -6.8      7.334      9.770
REMARK  2 active torsions:
REMARK  status: ('A' for Active; 'I' for Inactive)
REMARK    1  A    between atoms: N_1  and  C_2 
REMARK    2  A    between atoms: C_5  and  C_6 
ROOT
HETATM    1  C   LIG     1      16.061  34.934  21.202  1.00  0.00     0.109 A 
HETATM    2  N   LIG     1      16.600  34.352  22.304  1.00  0.00    -0.240 NA
HETATM    3  C   LIG     1      16.857  35.267  23.273  1.00  0.00     0.075 A 
HETATM    4  C   LIG     1      17.407  34.962  24.518  1.00  0.00     0.033 A 
HETATM    5  C   LIG     1      17.618  36.003  25.437  1.00  0.00     0.009 A 
HETATM    6  C   LIG     1      17.293  37.339  25.101  1.00  0.00    -0.061 A 
HETATM    7  C   LIG     1      17.488  38.436  26.105  1.00  0.00     0.048 C 
HETATM    8  C   LIG     1      16.725  37.625  23.843  1.00  0.00     0.028 A 
HETATM    9  C   LIG     1      16.527  36.573  22.955  1.00  0.00     0.036 A 
HETATM   10  S   LIG     1      15.886  36.612  21.407  1.00  0.00    -0.067 SA
ENDROOT
BRANCH   1  11
HETATM   11  C   LIG     1      15.680  34.174  19.988  1.00  0.00    -0.000 A 
HETATM   12  C   LIG     1      15.440  32.790  20.067  1.00  0.00     0.016 A 
HETATM   13  C   LIG     1      15.081  32.065  18.928  1.00  0.00     0.030 A 
HETATM   14  C   LIG     1      14.956  32.709  17.691  1.00  0.00     0.025 A 
HETATM   15  C   LIG     1      15.193  34.087  17.603  1.00  0.00     0.030 A 
HETATM   16  C   LIG     1      15.553  34.815  18.742  1.00  0.00     0.016 A 
BRANCH  14  17
HETATM   17  N   LIG     1      14.588  31.967  16.525  1.00  0.00    -0.399 N 
HETATM   18  H   LIG     1      13.846  32.317  15.879  1.00  0.00     0.156 HD
HETATM   19  H   LIG     1      15.056  31.061  16.299  1.00  0.00     0.156 HD
ENDBRANCH  14  17
ENDBRANCH   1  11
TORSDOF 2
ENDMDL
MODEL 6
REMARK VINA RESULT:      -6.7      1.089      2.040
REMARK  2 active torsions:
REMARK  status: ('A' for Active; 'I' for Inactive)
REMARK    1  A    between atoms: N_1  and  C_2 
REMARK    2  A    between atoms: C_5  and  C_6 
ROOT
HETATM    1  C   LIG     1      17.543  33.377  13.500  1.00  0.00     0.109 A 
HETATM    2  N   LIG     1      17.206  33.964  14.677  1.00  0.00    -0.240 NA
HETATM    3  C   LIG     1      16.229  33.271  15.316  1.00  0.00     0.075 A 
HETATM    4  C   LIG     1      15.685  33.632  16.548  1.00  0.00     0.033 A 
HETATM    5  C   LIG     1      14.679  32.824  17.106  1.00  0.00     0.009 A 
HETATM    6  C   LIG     1      14.217  31.673  16.424  1.00  0.00    -0.061 A 
HETATM    7  C   LIG     1      13.171  30.799  17.047  1.00  0.00     0.048 C 
HETATM    8  C   LIG     1      14.790  31.318  15.186  1.00  0.00     0.028 A 
HETATM    9  C   LIG     1      15.784  32.137  14.660  1.00  0.00     0.036 A 
HETATM   10  S   LIG     1      16.630  31.971  13.222  1.00  0.00    -0.067 SA
ENDROOT
BRANCH   1  11
HETATM   11  C   LIG     1      18.582  33.918  12.593  1.00  0.00    -0.000 A 
HETATM   12  C   LIG     1      19.944  33.772  12.913  1.00  0.00     0.016 A 
HETATM   13  C   LIG     1      20.932  34.279  12.064  1.00  0.00     0.030 A 
HETATM   14  C   LIG     1      20.576  34.941  10.882  1.00  0.00     0.025 A 
HETATM   15  C   LIG     1      19.221  35.091  10.557  1.00  0.00     0.030 A 
HETATM   16  C   LIG     1      18.232  34.584  11.405  1.00  0.00     0.016 A 
BRANCH  14  17
HETATM   17  N   LIG     1      21.587  35.460  10.014  1.00  0.00    -0.399 N 
HETATM   18  H   LIG     1      22.495  34.959   9.890  1.00  0.00     0.156 HD
HETATM   19  H   LIG     1      21.434  36.349   9.488  1.00  0.00     0.156 HD
ENDBRANCH  14  17
ENDBRANCH   1  11
TORSDOF 2
ENDMDL
MODEL 7
REMARK VINA RESULT:      -6.6      5.136      7.678
REMARK  2 active torsions:
REMARK  status: ('A' for Active; 'I' for Inactive)
REMARK    1  A    between atoms: N_1  and  C_2 
REMARK    2  A    between atoms: C_5  and  C_6 
ROOT
HETATM    1  C   LIG     1      15.210  33.014  18.484  1.00  0.00     0.109 A 
HETATM    2  N   LIG     1      15.770  34.245  18.359  1.00  0.00    -0.240 NA
HETATM    3  C   LIG     1      16.062  34.783  19.571  1.00  0.00     0.075 A 
HETATM    4  C   LIG     1      16.649  36.034  19.756  1.00  0.00     0.033 A 
HETATM    5  C   LIG     1      16.906  36.473  21.066  1.00  0.00     0.009 A 
HETATM    6  C   LIG     1      16.563  35.668  22.178  1.00  0.00    -0.061 A 
HETATM    7  C   LIG     1      16.877  36.131  23.569  1.00  0.00     0.048 C 
HETATM    8  C   LIG     1      15.984  34.399  21.969  1.00  0.00     0.028 A 
HETATM    9  C   LIG     1      15.743  33.992  20.661  1.00  0.00     0.036 A 
HETATM   10  S   LIG     1      15.066  32.559  20.115  1.00  0.00    -0.067 SA
ENDROOT
BRANCH   1  11
HETATM   11  C   LIG     1      14.790  32.194  17.324  1.00  0.00    -0.000 A 
HETATM   12  C   LIG     1      15.571  32.172  16.154  1.00  0.00     0.016 A 
HETATM   13  C   LIG     1      15.183  31.401  15.055  1.00  0.00     0.030 A 
HETATM   14  C   LIG     1      14.007  30.641  15.105  1.00  0.00     0.025 A 
HETATM   15  C   LIG     1      13.224  30.658  16.267  1.00  0.00     0.030 A 
HETATM   16  C   LIG     1      13.611  31.428  17.367  1.00  0.00     0.016 A 
BRANCH  14  17
HETATM   17  N   LIG     1      13.611  29.853  13.980  1.00  0.00    -0.399 N 
HETATM   18  H   LIG     1      13.926  30.100  13.015  1.00  0.00     0.156 HD
HETATM   19  H   LIG     1      12.998  29.016  14.103  1.00  0.00     0.156 HD
ENDBRANCH  14  17
ENDBRANCH   1  11
TORSDOF 2
ENDMDL
MODEL 8
REMARK VINA RESULT:      -6.5      1.754      7.058
REMARK  2 active torsions:
REMARK  status: ('A' for Active; 'I' for Inactive)
REMARK    1  A    between atoms: N_1  and  C_2 
REMARK    2  A    between atoms: C_5  and  C_6 
ROOT
HETATM    1  C   LIG     1      17.289  33.006  13.828  1.00  0.00     0.109 A 
HETATM    2  N   LIG     1      18.609  32.940  14.141  1.00  0.00    -0.240 NA
HETATM    3  C   LIG     1      19.374  33.535  13.190  1.00  0.00     0.075 A 
HETATM    4  C   LIG     1      20.764  33.627  13.243  1.00  0.00     0.033 A 
HETATM    5  C   LIG     1      21.439  34.275  12.194  1.00  0.00     0.009 A 
HETATM    6  C   LIG     1      20.724  34.811  11.098  1.00  0.00    -0.061 A 
HETATM    7  C   LIG     1      21.452  35.534  10.005  1.00  0.00     0.048 C 
HETATM    8  C   LIG     1      19.317  34.721  11.070  1.00  0.00     0.028 A 
HETATM    9  C   LIG     1      18.677  34.075  12.124  1.00  0.00     0.036 A 
HETATM   10  S   LIG     1      17.038  33.812  12.354  1.00  0.00    -0.067 SA
ENDROOT
BRANCH   1  11
HETATM   11  C   LIG     1      16.224  32.437  14.688  1.00  0.00    -0.000 A 
HETATM   12  C   LIG     1      15.551  31.265  14.297  1.00  0.00     0.016 A 
HETATM   13  C   LIG     1      14.545  30.722  15.101  1.00  0.00     0.030 A 
HETATM   14  C   LIG     1      14.194  31.341  16.308  1.00  0.00     0.025 A 
HETATM   15  C   LIG     1      14.859  32.508  16.704  1.00  0.00     0.030 A 
HETATM   16  C   LIG     1      15.866  33.053  15.901  1.00  0.00     0.016 A 
BRANCH  14  17
HETATM   17  N   LIG     1      13.165  30.784  17.130  1.00  0.00    -0.399 N 
HETATM   18  H   LIG     1      12.486  30.091  16.742  1.00  0.00     0.156 HD
HETATM   19  H   LIG     1      13.074  31.061  18.133  1.00  0.00     0.156 HD
ENDBRANCH  14  17
ENDBRANCH   1  11
TORSDOF 2
ENDMDL
MODEL 9
REMARK VINA RESULT:      -6.4      5.478      7.468
REMARK  2 active torsions:
REMARK  status: ('A' for Active; 'I' for Inactive)
REMARK    1  A    between atoms: N_1  and  C_2 
REMARK    2  A    between atoms: C_5  and  C_6 
ROOT
HETATM    1  C   LIG     1      14.737  32.537  17.550  1.00  0.00     0.109 A 
HETATM    2  N   LIG     1      14.762  32.270  18.881  1.00  0.00    -0.240 NA
HETATM    3  C   LIG     1      15.264  33.315  19.587  1.00  0.00     0.075 A 
HETATM    4  C   LIG     1      15.405  33.332  20.975  1.00  0.00     0.033 A 
HETATM    5  C   LIG     1      15.935  34.481  21.586  1.00  0.00     0.009 A 
HETATM    6  C   LIG     1      16.331  35.595  20.808  1.00  0.00    -0.061 A 
HETATM    7  C   LIG     1      16.858  36.830  21.476  1.00  0.00     0.048 C 
HETATM    8  C   LIG     1      16.165  35.564  19.409  1.00  0.00     0.028 A 
HETATM    9  C   LIG     1      15.638  34.413  18.833  1.00  0.00     0.036 A 
HETATM   10  S   LIG     1      15.339  34.090  17.215  1.00  0.00    -0.067 SA
ENDROOT
BRANCH   1  11
HETATM   11  C   LIG     1      14.238  31.574  16.540  1.00  0.00    -0.000 A 
HETATM   12  C   LIG     1      12.936  31.052  16.644  1.00  0.00     0.016 A 
HETATM   13  C   LIG     1      12.456  30.144  15.696  1.00  0.00     0.030 A 
HETATM   14  C   LIG     1      13.270  29.740  14.630  1.00  0.00     0.025 A 
HETATM   15  C   LIG     1      14.568  30.256  14.519  1.00  0.00     0.030 A 
HETATM   16  C   LIG     1      15.049  31.165  15.466  1.00  0.00     0.016 A 
BRANCH  14  17
HETATM   17  N   LIG     1      12.780  28.811  13.660  1.00  0.00    -0.399 N 
HETATM   18  H   LIG     1      13.212  28.748  12.712  1.00  0.00     0.156 HD
HETATM   19  H   LIG     1      11.980  28.177  13.884  1.00  0.00     0.156 HD
ENDBRANCH  14  17
ENDBRANCH   1  11
TORSDOF 2
ENDMDL
MODEL 10
REMARK VINA RESULT:      -6.2      5.081      7.309
REMARK  2 active torsions:
REMARK  status: ('A' for Active; 'I' for Inactive)
REMARK    1  A    between atoms: N_1  and  C_2 
REMARK    2  A    between atoms: C_5  and  C_6 
ROOT
HETATM    1  C   LIG     1      13.830  29.248  14.325  1.00  0.00     0.109 A 
HETATM    2  N   LIG     1      12.562  28.810  14.110  1.00  0.00    -0.240 NA
HETATM    3  C   LIG     1      12.542  27.734  13.284  1.00  0.00     0.075 A 
HETATM    4  C   LIG     1      11.383  27.066  12.890  1.00  0.00     0.033 A 
HETATM    5  C   LIG     1      11.499  25.958  12.033  1.00  0.00     0.009 A 
HETATM    6  C   LIG     1      12.767  25.536  11.567  1.00  0.00    -0.061 A 
HETATM    7  C   LIG     1      12.880  24.330  10.684  1.00  0.00     0.048 C 
HETATM    8  C   LIG     1      13.928  26.215  11.989  1.00  0.00     0.028 A 
HETATM    9  C   LIG     1      13.780  27.307  12.838  1.00  0.00     0.036 A 
HETATM   10  S   LIG     1      14.965  28.299  13.488  1.00  0.00    -0.067 SA
ENDROOT
BRANCH   1  11
HETATM   11  C   LIG     1      14.152  30.409  15.187  1.00  0.00    -0.000 A 
HETATM   12  C   LIG     1      15.285  31.197  14.917  1.00  0.00     0.016 A 
HETATM   13  C   LIG     1      15.596  32.295  15.725  1.00  0.00     0.030 A 
HETATM   14  C   LIG     1      14.781  32.622  16.816  1.00  0.00     0.025 A 
HETATM   15  C   LIG     1      13.650  31.842  17.091  1.00  0.00     0.030 A 
HETATM   16  C   LIG     1      13.337  30.744  16.284  1.00  0.00     0.016 A 
BRANCH  14  17
HETATM   17  N   LIG     1      15.100  33.745  17.642  1.00  0.00    -0.399 N 
HETATM   18  H   LIG     1      16.034  34.207  17.580  1.00  0.00     0.156 HD
HETATM   19  H   LIG     1      14.403  34.122  18.323  1.00  0.00     0.156 HD
ENDBRANCH  14  17
ENDBRANCH   1  11
TORSDOF 2
ENDMDL
MODEL 11
REMARK VINA RESULT:      -6.1      1.722      7.002
REMARK  2 active torsions:
REMARK  status: ('A' for Active; 'I' for Inactive)
REMARK    1  A    between atoms: N_1  and  C_2 
REMARK    2  A    between atoms: C_5  and  C_6 
ROOT
HETATM    1  C   LIG     1      17.012  32.797  14.072  1.00  0.00     0.109 A 
HETATM    2  N   LIG     1      16.909  33.340  12.832  1.00  0.00    -0.240 NA
HETATM    3  C   LIG     1      18.100  33.830  12.404  1.00  0.00     0.075 A 
HETATM    4  C   LIG     1      18.301  34.441  11.166  1.00  0.00     0.033 A 
HETATM    5  C   LIG     1      19.588  34.903  10.841  1.00  0.00     0.009 A 
HETATM    6  C   LIG     1      20.658  34.763  11.757  1.00  0.00    -0.061 A 
HETATM    7  C   LIG     1      22.034  35.225  11.383  1.00  0.00     0.048 C 
HETATM    8  C   LIG     1      20.438  34.130  12.997  1.00  0.00     0.028 A 
HETATM    9  C   LIG     1      19.153  33.683  13.290  1.00  0.00     0.036 A 
HETATM   10  S   LIG     1      18.598  32.911  14.671  1.00  0.00    -0.067 SA
ENDROOT
BRANCH   1  11
HETATM   11  C   LIG     1      15.867  32.186  14.787  1.00  0.00    -0.000 A 
HETATM   12  C   LIG     1      15.237  31.042  14.265  1.00  0.00     0.016 A 
HETATM   13  C   LIG     1      14.156  30.458  14.932  1.00  0.00     0.030 A 
HETATM   14  C   LIG     1      13.686  31.010  16.131  1.00  0.00     0.025 A 
HETATM   15  C   LIG     1      14.308  32.149  16.657  1.00  0.00     0.030 A 
HETATM   16  C   LIG     1      15.389  32.734  15.991  1.00  0.00     0.016 A 
BRANCH  14  17
HETATM   17  N   LIG     1      12.580  30.413  16.813  1.00  0.00    -0.399 N 
HETATM   18  H   LIG     1      12.634  29.430  17.163  1.00  0.00     0.156 HD
HETATM   19  H   LIG     1      11.699  30.949  16.974  1.00  0.00     0.156 HD
ENDBRANCH  14  17
ENDBRANCH   1  11
TORSDOF 2
ENDMDL
MODEL 12
REMARK VINA RESULT:      -5.4      4.954      7.123
REMARK  2 active torsions:
REMARK  status: ('A' for Active; 'I' for Inactive)
REMARK    1  A    between atoms: N_1  and  C_2 
REMARK    2  A    between atoms: C_5  and  C_6 
ROOT
HETATM    1  C   LIG     1      14.462  29.220  14.123  1.00  0.00     0.109 A 
HETATM    2  N   LIG     1      15.481  28.748  13.360  1.00  0.00    -0.240 NA
HETATM    3  C   LIG     1      15.087  27.692  12.604  1.00  0.00     0.075 A 
HETATM    4  C   LIG     1      15.917  27.005  11.718  1.00  0.00     0.033 A 
HETATM    5  C   LIG     1      15.383  25.929  10.988  1.00  0.00     0.009 A 
HETATM    6  C   LIG     1      14.033  25.539  11.159  1.00  0.00    -0.061 A 
HETATM    7  C   LIG     1      13.466  24.414  10.347  1.00  0.00     0.048 C 
HETATM    8  C   LIG     1      13.207  26.256  12.049  1.00  0.00     0.028 A 
HETATM    9  C   LIG     1      13.764  27.317  12.756  1.00  0.00     0.036 A 
HETATM   10  S   LIG     1      13.035  28.331  13.874  1.00  0.00    -0.067 SA
ENDROOT
BRANCH   1  11
HETATM   11  C   LIG     1      14.606  30.369  15.047  1.00  0.00    -0.000 A 
HETATM   12  C   LIG     1      13.701  30.539  16.110  1.00  0.00     0.016 A 
HETATM   13  C   LIG     1      13.830  31.621  16.987  1.00  0.00     0.030 A 
HETATM   14  C   LIG     1      14.863  32.550  16.815  1.00  0.00     0.025 A 
HETATM   15  C   LIG     1      15.769  32.387  15.758  1.00  0.00     0.030 A 
HETATM   16  C   LIG     1      15.642  31.306  14.881  1.00  0.00     0.016 A 
BRANCH  14  17
HETATM   17  N   LIG     1      14.994  33.656  17.712  1.00  0.00    -0.399 N 
HETATM   18  H   LIG     1      15.935  33.968  18.042  1.00  0.00     0.156 HD
HETATM   19  H   LIG     1      14.152  34.171  18.052  1.00  0.00     0.156 HD
ENDBRANCH  14  17
ENDBRANCH   1  11
TORSDOF 2
ENDMDL
MODEL 13
REMARK VINA RESULT:      -5.2      5.555      8.387
REMARK  2 active torsions:
REMARK  status: ('A' for Active; 'I' for Inactive)
REMARK    1  A    between atoms: N_1  and  C_2 
REMARK    2  A    between atoms: C_5  and  C_6 
ROOT
HETATM    1  C   LIG     1      13.599  27.910  13.299  1.00  0.00     0.109 A 
HETATM    2  N   LIG     1      12.746  28.557  14.134  1.00  0.00    -0.240 NA
HETATM    3  C   LIG     1      13.370  29.559  14.803  1.00  0.00     0.075 A 
HETATM    4  C   LIG     1      12.745  30.399  15.725  1.00  0.00     0.033 A 
HETATM    5  C   LIG     1      13.505  31.405  16.346  1.00  0.00     0.009 A 
HETATM    6  C   LIG     1      14.881  31.554  16.054  1.00  0.00    -0.061 A 
HETATM    7  C   LIG     1      15.672  32.655  16.695  1.00  0.00     0.048 C 
HETATM    8  C   LIG     1      15.491  30.705  15.108  1.00  0.00     0.028 A 
HETATM    9  C   LIG     1      14.713  29.719  14.509  1.00  0.00     0.036 A 
HETATM   10  S   LIG     1      15.162  28.575  13.370  1.00  0.00    -0.067 SA
ENDROOT
BRANCH   1  11
HETATM   11  C   LIG     1      13.189  26.772  12.443  1.00  0.00    -0.000 A 
HETATM   12  C   LIG     1      11.900  26.223  12.568  1.00  0.00     0.016 A 
HETATM   13  C   LIG     1      11.504  25.150  11.765  1.00  0.00     0.030 A 
HETATM   14  C   LIG     1      12.390  24.606  10.826  1.00  0.00     0.025 A 
HETATM   15  C   LIG     1      13.676  25.147  10.696  1.00  0.00     0.030 A 
HETATM   16  C   LIG     1      14.073  26.221  11.498  1.00  0.00     0.016 A 
BRANCH  14  17
HETATM   17  N   LIG     1      11.984  23.508  10.005  1.00  0.00    -0.399 N 
HETATM   18  H   LIG     1      11.677  23.662   9.018  1.00  0.00     0.156 HD
HETATM   19  H   LIG     1      11.989  22.532  10.376  1.00  0.00     0.156 HD
ENDBRANCH  14  17
ENDBRANCH   1  11
TORSDOF 2
ENDMDL
MODEL 14
REMARK VINA RESULT:      -5.0      4.603      7.749
REMARK  2 active torsions:
REMARK  status: ('A' for Active; 'I' for Inactive)
REMARK    1  A    between atoms: N_1  and  C_2 
REMARK    2  A    between atoms: C_5  and  C_6 
ROOT
HETATM    1  C   LIG     1      13.426  29.609  14.500  1.00  0.00     0.109 A 
HETATM    2  N   LIG     1      14.594  30.223  14.180  1.00  0.00    -0.240 NA
HETATM    3  C   LIG     1      14.869  31.243  15.033  1.00  0.00     0.075 A 
HETATM    4  C   LIG     1      16.003  32.050  14.954  1.00  0.00     0.033 A 
HETATM    5  C   LIG     1      16.173  33.071  15.904  1.00  0.00     0.009 A 
HETATM    6  C   LIG     1      15.205  33.286  16.914  1.00  0.00    -0.061 A 
HETATM    7  C   LIG     1      15.417  34.354  17.945  1.00  0.00     0.048 C 
HETATM    8  C   LIG     1      14.073  32.449  16.985  1.00  0.00     0.028 A 
HETATM    9  C   LIG     1      13.933  31.447  16.031  1.00  0.00     0.036 A 
HETATM   10  S   LIG     1      12.703  30.321  15.863  1.00  0.00    -0.067 SA
ENDROOT
BRANCH   1  11
HETATM   11  C   LIG     1      12.879  28.461  13.739  1.00  0.00    -0.000 A 
HETATM   12  C   LIG     1      11.525  28.450  13.355  1.00  0.00     0.016 A 
HETATM   13  C   LIG     1      11.000  27.372  12.636  1.00  0.00     0.030 A 
HETATM   14  C   LIG     1      11.817  26.288  12.292  1.00  0.00     0.025 A 
HETATM   15  C   LIG     1      13.166  26.292  12.671  1.00  0.00     0.030 A 
HETATM   16  C   LIG     1      13.693  27.369  13.389  1.00  0.00     0.016 A 
BRANCH  14  17
HETATM   17  N   LIG     1      11.279  25.185  11.557  1.00  0.00    -0.399 N 
HETATM   18  H   LIG     1      11.567  25.009  10.568  1.00  0.00     0.156 HD
HETATM   19  H   LIG     1      10.589  24.536  11.996  1.00  0.00     0.156 HD
ENDBRANCH  14  17
ENDBRANCH   1  11
TORSDOF 2
ENDMDL
MODEL 15
REMARK VINA RESULT:      -4.9     21.996     23.358
REMARK  2 active torsions:
REMARK  status: ('A' for Active; 'I' for Inactive)
REMARK    1  A    between atoms: N_1  and  C_2 
REMARK    2  A    between atoms: C_5  and  C_6 
ROOT
HETATM    1  C   LIG     1      27.488  29.053  33.594  1.00  0.00     0.109 A 
HETATM    2  N   LIG     1      28.399  29.187  32.596  1.00  0.00    -0.240 NA
HETATM    3  C   LIG     1      28.242  28.226  31.649  1.00  0.00     0.075 A 
HETATM    4  C   LIG     1      29.030  28.114  30.504  1.00  0.00     0.033 A 
HETATM    5  C   LIG     1      28.760  27.075  29.597  1.00  0.00     0.009 A 
HETATM    6  C   LIG     1      27.718  26.151  29.847  1.00  0.00    -0.061 A 
HETATM    7  C   LIG     1      27.415  25.070  28.853  1.00  0.00     0.048 C 
HETATM    8  C   LIG     1      26.924  26.290  31.004  1.00  0.00     0.028 A 
HETATM    9  C   LIG     1      27.215  27.329  31.882  1.00  0.00     0.036 A 
HETATM   10  S   LIG     1      26.456  27.731  33.322  1.00  0.00    -0.067 SA
ENDROOT
BRANCH   1  11
HETATM   11  C   LIG     1      27.426  29.964  34.761  1.00  0.00    -0.000 A 
HETATM   12  C   LIG     1      26.186  30.279  35.346  1.00  0.00     0.016 A 
HETATM   13  C   LIG     1      26.117  31.138  36.447  1.00  0.00     0.030 A 
HETATM   14  C   LIG     1      27.285  31.697  36.980  1.00  0.00     0.025 A 
HETATM   15  C   LIG     1      28.524  31.388  36.403  1.00  0.00     0.030 A 
HETATM   16  C   LIG     1      28.595  30.530  35.303  1.00  0.00     0.016 A 
BRANCH  14  17
HETATM   17  N   LIG     1      27.214  32.575  38.107  1.00  0.00    -0.399 N 
HETATM   18  H   LIG     1      26.835  33.543  38.007  1.00  0.00     0.156 HD
HETATM   19  H   LIG     1      27.541  32.264  39.049  1.00  0.00     0.156 HD
ENDBRANCH  14  17
ENDBRANCH   1  11
TORSDOF 2
ENDMDL
MODEL 16
REMARK VINA RESULT:      -4.9     22.303     23.634
REMARK  2 active torsions:
REMARK  status: ('A' for Active; 'I' for Inactive)
REMARK    1  A    between atoms: N_1  and  C_2 
REMARK    2  A    between atoms: C_5  and  C_6 
ROOT
HETATM    1  C   LIG     1      27.631  28.356  33.538  1.00  0.00     0.109 A 
HETATM    2  N   LIG     1      26.523  28.949  34.054  1.00  0.00    -0.240 NA
HETATM    3  C   LIG     1      26.844  29.830  35.036  1.00  0.00     0.075 A 
HETATM    4  C   LIG     1      25.914  30.591  35.744  1.00  0.00     0.033 A 
HETATM    5  C   LIG     1      26.378  31.473  36.736  1.00  0.00     0.009 A 
HETATM    6  C   LIG     1      27.760  31.576  37.021  1.00  0.00    -0.061 A 
HETATM    7  C   LIG     1      28.245  32.548  38.054  1.00  0.00     0.048 C 
HETATM    8  C   LIG     1      28.685  30.809  36.283  1.00  0.00     0.028 A 
HETATM    9  C   LIG     1      28.195  29.946  35.308  1.00  0.00     0.036 A 
HETATM   10  S   LIG     1      29.046  28.917  34.293  1.00  0.00    -0.067 SA
ENDROOT
BRANCH   1  11
HETATM   11  C   LIG     1      27.579  27.350  32.451  1.00  0.00    -0.000 A 
HETATM   12  C   LIG     1      27.868  26.001  32.723  1.00  0.00     0.016 A 
HETATM   13  C   LIG     1      27.822  25.045  31.704  1.00  0.00     0.030 A 
HETATM   14  C   LIG     1      27.488  25.422  30.397  1.00  0.00     0.025 A 
HETATM   15  C   LIG     1      27.199  26.764  30.118  1.00  0.00     0.030 A 
HETATM   16  C   LIG     1      27.244  27.721  31.136  1.00  0.00     0.016 A 
BRANCH  14  17
HETATM   17  N   LIG     1      27.441  24.444  29.355  1.00  0.00    -0.399 N 
HETATM   18  H   LIG     1      26.531  24.163  28.925  1.00  0.00     0.156 HD
HETATM   19  H   LIG     1      28.316  23.994  29.004  1.00  0.00     0.156 HD
ENDBRANCH  14  17
ENDBRANCH   1  11
TORSDOF 2
ENDMDL
MODEL 17
REMARK VINA RESULT:      -4.9     13.685     13.920
REMARK  2 active torsions:
REMARK  status: ('A' for Active; 'I' for Inactive)
REMARK    1  A    between atoms: N_1  and  C_2 
REMARK    2  A    between atoms: C_5  and  C_6 
ROOT
HETATM    1  C   LIG     1      26.757  24.163  18.738  1.00  0.00     0.109 A 
HETATM    2  N   LIG     1      25.809  23.365  18.182  1.00  0.00    -0.240 NA
HETATM    3  C   LIG     1      25.006  22.815  19.128  1.00  0.00     0.075 A 
HETATM    4  C   LIG     1      23.941  21.957  18.854  1.00  0.00     0.033 A 
HETATM    5  C   LIG     1      23.181  21.460  19.927  1.00  0.00     0.009 A 
HETATM    6  C   LIG     1      23.499  21.811  21.260  1.00  0.00    -0.061 A 
HETATM    7  C   LIG     1      22.657  21.304  22.393  1.00  0.00     0.048 C 
HETATM    8  C   LIG     1      24.570  22.691  21.515  1.00  0.00     0.028 A 
HETATM    9  C   LIG     1      25.303  23.167  20.432  1.00  0.00     0.036 A 
HETATM   10  S   LIG     1      26.618  24.207  20.430  1.00  0.00    -0.067 SA
ENDROOT
BRANCH   1  11
HETATM   11  C   LIG     1      27.772  24.892  17.941  1.00  0.00    -0.000 A 
HETATM   12  C   LIG     1      28.247  24.348  16.734  1.00  0.00     0.016 A 
HETATM   13  C   LIG     1      29.203  25.029  15.975  1.00  0.00     0.030 A 
HETATM   14  C   LIG     1      29.701  26.264  16.410  1.00  0.00     0.025 A 
HETATM   15  C   LIG     1      29.233  26.812  17.611  1.00  0.00     0.030 A 
HETATM   16  C   LIG     1      28.276  26.133  18.371  1.00  0.00     0.016 A 
BRANCH  14  17
HETATM   17  N   LIG     1      30.680  26.960  15.634  1.00  0.00    -0.399 N 
HETATM   18  H   LIG     1      30.407  27.764  15.026  1.00  0.00     0.156 HD
HETATM   19  H   LIG     1      31.685  26.677  15.662  1.00  0.00     0.156 HD
ENDBRANCH  14  17
ENDBRANCH   1  11
TORSDOF 2
ENDMDL
MODEL 18
REMARK VINA RESULT:      -4.9     13.794     14.351
REMARK  2 active torsions:
REMARK  status: ('A' for Active; 'I' for Inactive)
REMARK    1  A    between atoms: N_1  and  C_2 
REMARK    2  A    between atoms: C_5  and  C_6 
ROOT
HETATM    1  C   LIG     1      25.852  23.043  18.940  1.00  0.00     0.109 A 
HETATM    2  N   LIG     1      24.800  22.714  18.147  1.00  0.00    -0.240 NA
HETATM    3  C   LIG     1      24.185  21.584  18.581  1.00  0.00     0.075 A 
HETATM    4  C   LIG     1      23.072  21.009  17.968  1.00  0.00     0.033 A 
HETATM    5  C   LIG     1      22.525  19.838  18.521  1.00  0.00     0.009 A 
HETATM    6  C   LIG     1      23.101  19.246  19.670  1.00  0.00    -0.061 A 
HETATM    7  C   LIG     1      22.485  18.019  20.273  1.00  0.00     0.048 C 
HETATM    8  C   LIG     1      24.217  19.851  20.284  1.00  0.00     0.028 A 
HETATM    9  C   LIG     1      24.735  21.009  19.713  1.00  0.00     0.036 A 
HETATM   10  S   LIG     1      26.043  21.931  20.211  1.00  0.00    -0.067 SA
ENDROOT
BRANCH   1  11
HETATM   11  C   LIG     1      26.706  24.230  18.703  1.00  0.00    -0.000 A 
HETATM   12  C   LIG     1      26.553  25.380  19.498  1.00  0.00     0.016 A 
HETATM   13  C   LIG     1      27.355  26.505  19.282  1.00  0.00     0.030 A 
HETATM   14  C   LIG     1      28.319  26.500  18.267  1.00  0.00     0.025 A 
HETATM   15  C   LIG     1      28.477  25.358  17.470  1.00  0.00     0.030 A 
HETATM   16  C   LIG     1      27.677  24.232  17.686  1.00  0.00     0.016 A 
BRANCH  14  17
HETATM   17  N   LIG     1      29.139  27.651  18.045  1.00  0.00    -0.399 N 
HETATM   18  H   LIG     1      28.738  28.614  18.110  1.00  0.00     0.156 HD
HETATM   19  H   LIG     1      30.152  27.549  17.815  1.00  0.00     0.156 HD
ENDBRANCH  14  17
ENDBRANCH   1  11
TORSDOF 2
ENDMDL
MODEL 19
REMARK VINA RESULT:      -4.8     13.740     15.753
REMARK  2 active torsions:
REMARK  status: ('A' for Active; 'I' for Inactive)
REMARK    1  A    between atoms: N_1  and  C_2 
REMARK    2  A    between atoms: C_5  and  C_6 
ROOT
HETATM    1  C   LIG     1      26.165  23.763  19.573  1.00  0.00     0.109 A 
HETATM    2  N   LIG     1      26.504  25.051  19.837  1.00  0.00    -0.240 NA
HETATM    3  C   LIG     1      27.391  25.527  18.926  1.00  0.00     0.075 A 
HETATM    4  C   LIG     1      27.914  26.820  18.939  1.00  0.00     0.033 A 
HETATM    5  C   LIG     1      28.822  27.191  17.932  1.00  0.00     0.009 A 
HETATM    6  C   LIG     1      29.210  26.267  16.933  1.00  0.00    -0.061 A 
HETATM    7  C   LIG     1      30.150  26.687  15.843  1.00  0.00     0.048 C 
HETATM    8  C   LIG     1      28.658  24.969  16.929  1.00  0.00     0.028 A 
HETATM    9  C   LIG     1      27.761  24.632  17.938  1.00  0.00     0.036 A 
HETATM   10  S   LIG     1      26.962  23.180  18.191  1.00  0.00    -0.067 SA
ENDROOT
BRANCH   1  11
HETATM   11  C   LIG     1      25.214  22.989  20.405  1.00  0.00    -0.000 A 
HETATM   12  C   LIG     1      25.354  22.967  21.805  1.00  0.00     0.016 A 
HETATM   13  C   LIG     1      24.461  22.241  22.597  1.00  0.00     0.030 A 
HETATM   14  C   LIG     1      23.415  21.522  22.005  1.00  0.00     0.025 A 
HETATM   15  C   LIG     1      23.268  21.539  20.612  1.00  0.00     0.030 A 
HETATM   16  C   LIG     1      24.160  22.265  19.818  1.00  0.00     0.016 A 
BRANCH  14  17
HETATM   17  N   LIG     1      22.502  20.779  22.817  1.00  0.00    -0.399 N 
HETATM   18  H   LIG     1      22.850  20.137  23.564  1.00  0.00     0.156 HD
HETATM   19  H   LIG     1      21.471  20.864  22.677  1.00  0.00     0.156 HD
ENDBRANCH  14  17
ENDBRANCH   1  11
TORSDOF 2
ENDMDL
