REMARK  2 active torsions:
REMARK  status: ('A' for Active; 'I' for Inactive)
REMARK    1  A    between atoms: N_1  and  C_2 
REMARK    2  A    between atoms: C_5  and  C_6 
ROOT
HETATM    1  C   LIG     1       0.429  -0.149   0.097  1.00  0.00     0.109 A 
HETATM    2  N   LIG     1      -0.245   0.993   0.390  1.00  0.00    -0.240 NA
HETATM    3  C   LIG     1      -1.588   0.798   0.361  1.00  0.00     0.075 A 
HETATM    4  C   LIG     1      -2.533   1.789   0.626  1.00  0.00     0.033 A 
HETATM    5  C   LIG     1      -3.897   1.455   0.568  1.00  0.00     0.009 A 
HETATM    6  C   LIG     1      -4.305   0.142   0.233  1.00  0.00    -0.061 A 
HETATM    7  C   LIG     1      -5.762  -0.211   0.212  1.00  0.00     0.048 C 
HETATM    8  C   LIG     1      -3.334  -0.849  -0.017  1.00  0.00     0.028 A 
HETATM    9  C   LIG     1      -1.992  -0.488   0.049  1.00  0.00     0.036 A 
HETATM   10  S   LIG     1      -0.635  -1.439  -0.205  1.00  0.00    -0.067 SA
ENDROOT
BRANCH   1  11
HETATM   11  C   LIG     1       1.908  -0.229   0.056  1.00  0.00    -0.000 A 
HETATM   12  C   LIG     1       2.685   0.912   0.326  1.00  0.00     0.016 A 
HETATM   13  C   LIG     1       4.081   0.846   0.290  1.00  0.00     0.030 A 
HETATM   14  C   LIG     1       4.723  -0.360  -0.018  1.00  0.00     0.025 A 
HETATM   15  C   LIG     1       3.956  -1.501  -0.288  1.00  0.00     0.030 A 
HETATM   16  C   LIG     1       2.560  -1.437  -0.252  1.00  0.00     0.016 A 
BRANCH  14  17
HETATM   17  N   LIG     1       6.151  -0.427  -0.055  1.00  0.00    -0.399 N 
HETATM   18  H   LIG     1       6.639  -1.322  -0.283  1.00  0.00     0.156 HD
HETATM   19  H   LIG     1       6.731   0.418   0.145  1.00  0.00     0.156 HD
ENDBRANCH  14  17
ENDBRANCH   1  11
TORSDOF 2
