REMARK  1 active torsions:
REMARK  status: ('A' for Active; 'I' for Inactive)
REMARK    1  A    between atoms: C_1  and  C_2 
ROOT
HETATM    1  C   LIG     1      -0.740  -0.006   0.096  1.00  0.00    -0.026 A 
HETATM    2  C   LIG     1      -1.502  -1.008  -0.534  1.00  0.00     0.012 A 
HETATM    3  C   LIG     1      -2.896  -1.017  -0.418  1.00  0.00     0.001 A 
HETATM    4  C   LIG     1      -3.543  -0.029   0.327  1.00  0.00     0.000 A 
HETATM    5  C   LIG     1      -2.799   0.970   0.957  1.00  0.00     0.001 A 
HETATM    6  C   LIG     1      -1.405   0.985   0.844  1.00  0.00     0.012 A 
ENDROOT
BRANCH   1   7
HETATM    7  C   LIG     1       0.740   0.006  -0.025  1.00  0.00    -0.026 A 
HETATM    8  C   LIG     1       1.473  -1.195   0.033  1.00  0.00     0.012 A 
HETATM    9  C   LIG     1       2.867  -1.180  -0.081  1.00  0.00     0.001 A 
HETATM   10  C   LIG     1       3.543   0.029  -0.256  1.00  0.00     0.000 A 
HETATM   11  C   LIG     1       2.828   1.227  -0.317  1.00  0.00     0.001 A 
HETATM   12  C   LIG     1       1.434   1.218  -0.202  1.00  0.00     0.012 A 
ENDBRANCH   1   7
TORSDOF 1
