MODEL 1
REMARK VINA RESULT:      -7.6      0.000      0.000
REMARK  1 active torsions:
REMARK  status: ('A' for Active; 'I' for Inactive)
REMARK    1  A    between atoms: C_1  and  C_2 
ROOT
HETATM    1  C   LIG     1      17.259  35.936  24.002  1.00  0.00    -0.026 A 
HETATM    2  C   LIG     1      17.492  34.842  24.856  1.00  0.00     0.012 A 
HETATM    3  C   LIG     1      17.862  35.050  26.189  1.00  0.00     0.001 A 
HETATM    4  C   LIG     1      18.004  36.348  26.683  1.00  0.00     0.000 A 
HETATM    5  C   LIG     1      17.777  37.442  25.845  1.00  0.00     0.001 A 
HETATM    6  C   LIG     1      17.406  37.241  24.512  1.00  0.00     0.012 A 
ENDROOT
BRANCH   1   7
HETATM    7  C   LIG     1      16.867  35.719  22.586  1.00  0.00    -0.026 A 
HETATM    8  C   LIG     1      15.841  34.813  22.258  1.00  0.00     0.012 A 
HETATM    9  C   LIG     1      15.474  34.611  20.924  1.00  0.00     0.001 A 
HETATM   10  C   LIG     1      16.123  35.310  19.905  1.00  0.00     0.000 A 
HETATM   11  C   LIG     1      17.141  36.214  20.216  1.00  0.00     0.001 A 
HETATM   12  C   LIG     1      17.513  36.419  21.549  1.00  0.00     0.012 A 
ENDBRANCH   1   7
TORSDOF 1
ENDMDL
MODEL 2
REMARK VINA RESULT:      -7.6      0.031      4.947
REMARK  1 active torsions:
REMARK  status: ('A' for Active; 'I' for Inactive)
REMARK    1  A    between atoms: C_1  and  C_2 
ROOT
HETATM    1  C   LIG     1      16.877  35.713  22.607  1.00  0.00    -0.026 A 
HETATM    2  C   LIG     1      15.849  34.809  22.280  1.00  0.00     0.012 A 
HETATM    3  C   LIG     1      15.474  34.613  20.946  1.00  0.00     0.001 A 
HETATM    4  C   LIG     1      16.120  35.316  19.927  1.00  0.00     0.000 A 
HETATM    5  C   LIG     1      17.140  36.216  20.238  1.00  0.00     0.001 A 
HETATM    6  C   LIG     1      17.520  36.416  21.569  1.00  0.00     0.012 A 
ENDROOT
BRANCH   1   7
HETATM    7  C   LIG     1      17.276  35.923  24.021  1.00  0.00    -0.026 A 
HETATM    8  C   LIG     1      17.437  37.225  24.534  1.00  0.00     0.012 A 
HETATM    9  C   LIG     1      17.814  37.420  25.867  1.00  0.00     0.001 A 
HETATM   10  C   LIG     1      18.031  36.321  26.702  1.00  0.00     0.000 A 
HETATM   11  C   LIG     1      17.873  35.025  26.206  1.00  0.00     0.001 A 
HETATM   12  C   LIG     1      17.498  34.825  24.874  1.00  0.00     0.012 A 
ENDBRANCH   1   7
TORSDOF 1
ENDMDL
MODEL 3
REMARK VINA RESULT:      -6.8      2.056      5.170
REMARK  1 active torsions:
REMARK  status: ('A' for Active; 'I' for Inactive)
REMARK    1  A    between atoms: C_1  and  C_2 
ROOT
HETATM    1  C   LIG     1      18.205  37.839  21.228  1.00  0.00    -0.026 A 
HETATM    2  C   LIG     1      18.273  36.834  20.245  1.00  0.00     0.012 A 
HETATM    3  C   LIG     1      18.645  37.148  18.934  1.00  0.00     0.001 A 
HETATM    4  C   LIG     1      18.952  38.467  18.590  1.00  0.00     0.000 A 
HETATM    5  C   LIG     1      18.889  39.473  19.556  1.00  0.00     0.001 A 
HETATM    6  C   LIG     1      18.519  39.164  20.869  1.00  0.00     0.012 A 
ENDROOT
BRANCH   1   7
HETATM    7  C   LIG     1      17.810  37.508  22.621  1.00  0.00    -0.026 A 
HETATM    8  C   LIG     1      17.339  36.221  22.945  1.00  0.00     0.012 A 
HETATM    9  C   LIG     1      16.967  35.913  24.258  1.00  0.00     0.001 A 
HETATM   10  C   LIG     1      17.063  36.882  25.259  1.00  0.00     0.000 A 
HETATM   11  C   LIG     1      17.530  38.161  24.951  1.00  0.00     0.001 A 
HETATM   12  C   LIG     1      17.902  38.475  23.640  1.00  0.00     0.012 A 
ENDBRANCH   1   7
TORSDOF 1
ENDMDL
MODEL 4
REMARK VINA RESULT:      -6.8      2.065      3.016
REMARK  1 active torsions:
REMARK  status: ('A' for Active; 'I' for Inactive)
REMARK    1  A    between atoms: C_1  and  C_2 
ROOT
HETATM    1  C   LIG     1      17.810  37.514  22.609  1.00  0.00    -0.026 A 
HETATM    2  C   LIG     1      17.328  36.230  22.925  1.00  0.00     0.012 A 
HETATM    3  C   LIG     1      16.958  35.914  24.236  1.00  0.00     0.001 A 
HETATM    4  C   LIG     1      17.066  36.874  25.245  1.00  0.00     0.000 A 
HETATM    5  C   LIG     1      17.544  38.151  24.945  1.00  0.00     0.001 A 
HETATM    6  C   LIG     1      17.914  38.473  23.635  1.00  0.00     0.012 A 
ENDROOT
BRANCH   1   7
HETATM    7  C   LIG     1      18.204  37.852  21.218  1.00  0.00    -0.026 A 
HETATM    8  C   LIG     1      18.280  36.850  20.231  1.00  0.00     0.012 A 
HETATM    9  C   LIG     1      18.651  37.172  18.922  1.00  0.00     0.001 A 
HETATM   10  C   LIG     1      18.948  38.493  18.582  1.00  0.00     0.000 A 
HETATM   11  C   LIG     1      18.874  39.497  19.550  1.00  0.00     0.001 A 
HETATM   12  C   LIG     1      18.505  39.180  20.861  1.00  0.00     0.012 A 
ENDBRANCH   1   7
TORSDOF 1
ENDMDL
MODEL 5
REMARK VINA RESULT:      -6.8      2.611      4.434
REMARK  1 active torsions:
REMARK  status: ('A' for Active; 'I' for Inactive)
REMARK    1  A    between atoms: C_1  and  C_2 
ROOT
HETATM    1  C   LIG     1      18.140  37.152  20.499  1.00  0.00    -0.026 A 
HETATM    2  C   LIG     1      19.158  36.935  19.552  1.00  0.00     0.012 A 
HETATM    3  C   LIG     1      20.107  37.930  19.289  1.00  0.00     0.001 A 
HETATM    4  C   LIG     1      20.049  39.149  19.968  1.00  0.00     0.000 A 
HETATM    5  C   LIG     1      19.044  39.377  20.909  1.00  0.00     0.001 A 
HETATM    6  C   LIG     1      18.094  38.386  21.177  1.00  0.00     0.012 A 
ENDROOT
BRANCH   1   7
HETATM    7  C   LIG     1      17.132  36.099  20.780  1.00  0.00    -0.026 A 
HETATM    8  C   LIG     1      16.445  35.467  19.726  1.00  0.00     0.012 A 
HETATM    9  C   LIG     1      15.495  34.475  19.994  1.00  0.00     0.001 A 
HETATM   10  C   LIG     1      15.224  34.102  21.311  1.00  0.00     0.000 A 
HETATM   11  C   LIG     1      15.900  34.719  22.366  1.00  0.00     0.001 A 
HETATM   12  C   LIG     1      16.849  35.713  22.104  1.00  0.00     0.012 A 
ENDBRANCH   1   7
TORSDOF 1
ENDMDL
MODEL 6
REMARK VINA RESULT:      -6.7      2.603      4.734
REMARK  1 active torsions:
REMARK  status: ('A' for Active; 'I' for Inactive)
REMARK    1  A    between atoms: C_1  and  C_2 
ROOT
HETATM    1  C   LIG     1      17.137  36.111  20.781  1.00  0.00    -0.026 A 
HETATM    2  C   LIG     1      16.858  35.732  22.108  1.00  0.00     0.012 A 
HETATM    3  C   LIG     1      15.910  34.739  22.377  1.00  0.00     0.001 A 
HETATM    4  C   LIG     1      15.232  34.115  21.328  1.00  0.00     0.000 A 
HETATM    5  C   LIG     1      15.499  34.482  20.008  1.00  0.00     0.001 A 
HETATM    6  C   LIG     1      16.446  35.473  19.732  1.00  0.00     0.012 A 
ENDROOT
BRANCH   1   7
HETATM    7  C   LIG     1      18.143  37.165  20.492  1.00  0.00    -0.026 A 
HETATM    8  C   LIG     1      19.169  36.937  19.555  1.00  0.00     0.012 A 
HETATM    9  C   LIG     1      20.115  37.932  19.285  1.00  0.00     0.001 A 
HETATM   10  C   LIG     1      20.045  39.162  19.942  1.00  0.00     0.000 A 
HETATM   11  C   LIG     1      19.031  39.401  20.872  1.00  0.00     0.001 A 
HETATM   12  C   LIG     1      18.084  38.409  21.147  1.00  0.00     0.012 A 
ENDBRANCH   1   7
TORSDOF 1
ENDMDL
MODEL 7
REMARK VINA RESULT:      -6.5      4.989      7.675
REMARK  1 active torsions:
REMARK  status: ('A' for Active; 'I' for Inactive)
REMARK    1  A    between atoms: C_1  and  C_2 
ROOT
HETATM    1  C   LIG     1      15.000  32.642  17.732  1.00  0.00    -0.026 A 
HETATM    2  C   LIG     1      15.053  32.059  19.012  1.00  0.00     0.012 A 
HETATM    3  C   LIG     1      15.326  32.844  20.138  1.00  0.00     0.001 A 
HETATM    4  C   LIG     1      15.549  34.215  19.998  1.00  0.00     0.000 A 
HETATM    5  C   LIG     1      15.500  34.805  18.734  1.00  0.00     0.001 A 
HETATM    6  C   LIG     1      15.227  34.026  17.605  1.00  0.00     0.012 A 
ENDROOT
BRANCH   1   7
HETATM    7  C   LIG     1      14.711  31.811  16.535  1.00  0.00    -0.026 A 
HETATM    8  C   LIG     1      15.583  31.820  15.430  1.00  0.00     0.012 A 
HETATM    9  C   LIG     1      15.308  31.036  14.304  1.00  0.00     0.001 A 
HETATM   10  C   LIG     1      14.164  30.237  14.270  1.00  0.00     0.000 A 
HETATM   11  C   LIG     1      13.291  30.218  15.360  1.00  0.00     0.001 A 
HETATM   12  C   LIG     1      13.561  31.000  16.488  1.00  0.00     0.012 A 
ENDBRANCH   1   7
TORSDOF 1
ENDMDL
MODEL 8
REMARK VINA RESULT:      -6.5      4.989      8.958
REMARK  1 active torsions:
REMARK  status: ('A' for Active; 'I' for Inactive)
REMARK    1  A    between atoms: C_1  and  C_2 
ROOT
HETATM    1  C   LIG     1      14.715  31.813  16.533  1.00  0.00    -0.026 A 
HETATM    2  C   LIG     1      15.588  31.816  15.428  1.00  0.00     0.012 A 
HETATM    3  C   LIG     1      15.311  31.031  14.304  1.00  0.00     0.001 A 
HETATM    4  C   LIG     1      14.164  30.236  14.270  1.00  0.00     0.000 A 
HETATM    5  C   LIG     1      13.291  30.223  15.359  1.00  0.00     0.001 A 
HETATM    6  C   LIG     1      13.561  31.007  16.486  1.00  0.00     0.012 A 
ENDROOT
BRANCH   1   7
HETATM    7  C   LIG     1      15.006  32.645  17.728  1.00  0.00    -0.026 A 
HETATM    8  C   LIG     1      15.228  34.030  17.600  1.00  0.00     0.012 A 
HETATM    9  C   LIG     1      15.502  34.811  18.727  1.00  0.00     0.001 A 
HETATM   10  C   LIG     1      15.555  34.221  19.992  1.00  0.00     0.000 A 
HETATM   11  C   LIG     1      15.335  32.850  20.133  1.00  0.00     0.001 A 
HETATM   12  C   LIG     1      15.062  32.064  19.009  1.00  0.00     0.012 A 
ENDBRANCH   1   7
TORSDOF 1
ENDMDL
MODEL 9
REMARK VINA RESULT:      -6.4      1.634      2.683
REMARK  1 active torsions:
REMARK  status: ('A' for Active; 'I' for Inactive)
REMARK    1  A    between atoms: C_1  and  C_2 
ROOT
HETATM    1  C   LIG     1      17.834  36.738  24.152  1.00  0.00    -0.026 A 
HETATM    2  C   LIG     1      17.248  35.459  24.199  1.00  0.00     0.012 A 
HETATM    3  C   LIG     1      17.133  34.776  25.415  1.00  0.00     0.001 A 
HETATM    4  C   LIG     1      17.602  35.360  26.593  1.00  0.00     0.000 A 
HETATM    5  C   LIG     1      18.185  36.628  26.560  1.00  0.00     0.001 A 
HETATM    6  C   LIG     1      18.302  37.316  25.348  1.00  0.00     0.012 A 
ENDROOT
BRANCH   1   7
HETATM    7  C   LIG     1      17.958  37.465  22.863  1.00  0.00    -0.026 A 
HETATM    8  C   LIG     1      18.280  38.836  22.842  1.00  0.00     0.012 A 
HETATM    9  C   LIG     1      18.396  39.518  21.627  1.00  0.00     0.001 A 
HETATM   10  C   LIG     1      18.194  38.841  20.422  1.00  0.00     0.000 A 
HETATM   11  C   LIG     1      17.876  37.482  20.428  1.00  0.00     0.001 A 
HETATM   12  C   LIG     1      17.757  36.795  21.641  1.00  0.00     0.012 A 
ENDBRANCH   1   7
TORSDOF 1
ENDMDL
MODEL 10
REMARK VINA RESULT:      -6.4      1.634      4.726
REMARK  1 active torsions:
REMARK  status: ('A' for Active; 'I' for Inactive)
REMARK    1  A    between atoms: C_1  and  C_2 
ROOT
HETATM    1  C   LIG     1      17.933  37.453  22.925  1.00  0.00    -0.026 A 
HETATM    2  C   LIG     1      17.726  36.797  21.697  1.00  0.00     0.012 A 
HETATM    3  C   LIG     1      17.841  37.496  20.491  1.00  0.00     0.001 A 
HETATM    4  C   LIG     1      18.161  38.855  20.498  1.00  0.00     0.000 A 
HETATM    5  C   LIG     1      18.368  39.518  21.709  1.00  0.00     0.001 A 
HETATM    6  C   LIG     1      18.256  38.824  22.918  1.00  0.00     0.012 A 
ENDROOT
BRANCH   1   7
HETATM    7  C   LIG     1      17.811  36.713  24.207  1.00  0.00    -0.026 A 
HETATM    8  C   LIG     1      17.229  35.431  24.241  1.00  0.00     0.012 A 
HETATM    9  C   LIG     1      17.116  34.737  25.450  1.00  0.00     0.001 A 
HETATM   10  C   LIG     1      17.583  35.310  26.634  1.00  0.00     0.000 A 
HETATM   11  C   LIG     1      18.164  36.580  26.614  1.00  0.00     0.001 A 
HETATM   12  C   LIG     1      18.278  37.280  25.408  1.00  0.00     0.012 A 
ENDBRANCH   1   7
TORSDOF 1
ENDMDL
MODEL 11
REMARK VINA RESULT:      -6.3      7.768     10.606
REMARK  1 active torsions:
REMARK  status: ('A' for Active; 'I' for Inactive)
REMARK    1  A    between atoms: C_1  and  C_2 
ROOT
HETATM    1  C   LIG     1      14.692  30.975  15.312  1.00  0.00    -0.026 A 
HETATM    2  C   LIG     1      13.868  31.389  16.375  1.00  0.00     0.012 A 
HETATM    3  C   LIG     1      14.112  32.599  17.032  1.00  0.00     0.001 A 
HETATM    4  C   LIG     1      15.179  33.408  16.636  1.00  0.00     0.000 A 
HETATM    5  C   LIG     1      16.005  33.009  15.583  1.00  0.00     0.001 A 
HETATM    6  C   LIG     1      15.765  31.800  14.922  1.00  0.00     0.012 A 
ENDROOT
BRANCH   1   7
HETATM    7  C   LIG     1      14.436  29.690  14.613  1.00  0.00    -0.026 A 
HETATM    8  C   LIG     1      15.505  28.918  14.118  1.00  0.00     0.012 A 
HETATM    9  C   LIG     1      15.260  27.709  13.460  1.00  0.00     0.001 A 
HETATM   10  C   LIG     1      13.950  27.255  13.291  1.00  0.00     0.000 A 
HETATM   11  C   LIG     1      12.881  28.010  13.778  1.00  0.00     0.001 A 
HETATM   12  C   LIG     1      13.121  29.221  14.436  1.00  0.00     0.012 A 
ENDBRANCH   1   7
TORSDOF 1
ENDMDL
MODEL 12
REMARK VINA RESULT:      -6.3      7.771     10.635
REMARK  1 active torsions:
REMARK  status: ('A' for Active; 'I' for Inactive)
REMARK    1  A    between atoms: C_1  and  C_2 
ROOT
HETATM    1  C   LIG     1      14.676  30.962  15.315  1.00  0.00    -0.026 A 
HETATM    2  C   LIG     1      15.756  31.785  14.943  1.00  0.00     0.012 A 
HETATM    3  C   LIG     1      15.988  32.994  15.608  1.00  0.00     0.001 A 
HETATM    4  C   LIG     1      15.146  33.394  16.647  1.00  0.00     0.000 A 
HETATM    5  C   LIG     1      14.071  32.587  17.025  1.00  0.00     0.001 A 
HETATM    6  C   LIG     1      13.835  31.377  16.365  1.00  0.00     0.012 A 
ENDROOT
BRANCH   1   7
HETATM    7  C   LIG     1      14.427  29.678  14.611  1.00  0.00    -0.026 A 
HETATM    8  C   LIG     1      15.500  28.918  14.107  1.00  0.00     0.012 A 
HETATM    9  C   LIG     1      15.262  27.709  13.445  1.00  0.00     0.001 A 
HETATM   10  C   LIG     1      13.955  27.246  13.280  1.00  0.00     0.000 A 
HETATM   11  C   LIG     1      12.882  27.989  13.777  1.00  0.00     0.001 A 
HETATM   12  C   LIG     1      13.115  29.199  14.439  1.00  0.00     0.012 A 
ENDBRANCH   1   7
TORSDOF 1
ENDMDL
MODEL 13
REMARK VINA RESULT:      -6.3      7.766     11.185
REMARK  1 active torsions:
REMARK  status: ('A' for Active; 'I' for Inactive)
REMARK    1  A    between atoms: C_1  and  C_2 
ROOT
HETATM    1  C   LIG     1      14.436  29.689  14.614  1.00  0.00    -0.026 A 
HETATM    2  C   LIG     1      15.505  28.923  14.112  1.00  0.00     0.012 A 
HETATM    3  C   LIG     1      15.262  27.713  13.453  1.00  0.00     0.001 A 
HETATM    4  C   LIG     1      13.953  27.255  13.290  1.00  0.00     0.000 A 
HETATM    5  C   LIG     1      12.884  28.005  13.783  1.00  0.00     0.001 A 
HETATM    6  C   LIG     1      13.120  29.216  14.442  1.00  0.00     0.012 A 
ENDROOT
BRANCH   1   7
HETATM    7  C   LIG     1      14.690  30.974  15.314  1.00  0.00    -0.026 A 
HETATM    8  C   LIG     1      13.861  31.388  16.374  1.00  0.00     0.012 A 
HETATM    9  C   LIG     1      14.103  32.599  17.030  1.00  0.00     0.001 A 
HETATM   10  C   LIG     1      15.174  33.406  16.641  1.00  0.00     0.000 A 
HETATM   11  C   LIG     1      16.005  33.006  15.592  1.00  0.00     0.001 A 
HETATM   12  C   LIG     1      15.767  31.796  14.931  1.00  0.00     0.012 A 
ENDBRANCH   1   7
TORSDOF 1
ENDMDL
MODEL 14
REMARK VINA RESULT:      -6.1      2.789      3.960
REMARK  1 active torsions:
REMARK  status: ('A' for Active; 'I' for Inactive)
REMARK    1  A    between atoms: C_1  and  C_2 
ROOT
HETATM    1  C   LIG     1      16.388  35.701  20.607  1.00  0.00    -0.026 A 
HETATM    2  C   LIG     1      17.611  36.296  20.245  1.00  0.00     0.012 A 
HETATM    3  C   LIG     1      18.105  37.392  20.960  1.00  0.00     0.001 A 
HETATM    4  C   LIG     1      17.386  37.904  22.042  1.00  0.00     0.000 A 
HETATM    5  C   LIG     1      16.172  37.323  22.411  1.00  0.00     0.001 A 
HETATM    6  C   LIG     1      15.673  36.227  21.701  1.00  0.00     0.012 A 
ENDROOT
BRANCH   1   7
HETATM    7  C   LIG     1      15.860  34.538  19.850  1.00  0.00    -0.026 A 
HETATM    8  C   LIG     1      15.647  33.302  20.491  1.00  0.00     0.012 A 
HETATM    9  C   LIG     1      15.150  32.209  19.774  1.00  0.00     0.001 A 
HETATM   10  C   LIG     1      14.859  32.335  18.415  1.00  0.00     0.000 A 
HETATM   11  C   LIG     1      15.064  33.555  17.767  1.00  0.00     0.001 A 
HETATM   12  C   LIG     1      15.562  34.652  18.478  1.00  0.00     0.012 A 
ENDBRANCH   1   7
TORSDOF 1
ENDMDL
MODEL 15
REMARK VINA RESULT:      -5.9      2.079      5.845
REMARK  1 active torsions:
REMARK  status: ('A' for Active; 'I' for Inactive)
REMARK    1  A    between atoms: C_1  and  C_2 
ROOT
HETATM    1  C   LIG     1      15.525  34.234  20.031  1.00  0.00    -0.026 A 
HETATM    2  C   LIG     1      15.465  34.713  18.709  1.00  0.00     0.012 A 
HETATM    3  C   LIG     1      15.187  33.842  17.651  1.00  0.00     0.001 A 
HETATM    4  C   LIG     1      14.967  32.486  17.900  1.00  0.00     0.000 A 
HETATM    5  C   LIG     1      15.024  31.998  19.206  1.00  0.00     0.001 A 
HETATM    6  C   LIG     1      15.301  32.864  20.269  1.00  0.00     0.012 A 
ENDROOT
BRANCH   1   7
HETATM    7  C   LIG     1      15.821  35.157  21.157  1.00  0.00    -0.026 A 
HETATM    8  C   LIG     1      14.981  36.256  21.421  1.00  0.00     0.012 A 
HETATM    9  C   LIG     1      15.263  37.123  22.481  1.00  0.00     0.001 A 
HETATM   10  C   LIG     1      16.380  36.903  23.289  1.00  0.00     0.000 A 
HETATM   11  C   LIG     1      17.220  35.815  23.040  1.00  0.00     0.001 A 
HETATM   12  C   LIG     1      16.944  34.946  21.979  1.00  0.00     0.012 A 
ENDBRANCH   1   7
TORSDOF 1
ENDMDL
MODEL 16
REMARK VINA RESULT:      -5.9      2.159      4.269
REMARK  1 active torsions:
REMARK  status: ('A' for Active; 'I' for Inactive)
REMARK    1  A    between atoms: C_1  and  C_2 
ROOT
HETATM    1  C   LIG     1      16.261  35.018  20.595  1.00  0.00    -0.026 A 
HETATM    2  C   LIG     1      17.043  36.103  20.156  1.00  0.00     0.012 A 
HETATM    3  C   LIG     1      17.586  37.005  21.078  1.00  0.00     0.001 A 
HETATM    4  C   LIG     1      17.354  36.834  22.444  1.00  0.00     0.000 A 
HETATM    5  C   LIG     1      16.580  35.762  22.893  1.00  0.00     0.001 A 
HETATM    6  C   LIG     1      16.036  34.856  21.976  1.00  0.00     0.012 A 
ENDROOT
BRANCH   1   7
HETATM    7  C   LIG     1      15.684  34.059  19.619  1.00  0.00    -0.026 A 
HETATM    8  C   LIG     1      15.465  34.443  18.282  1.00  0.00     0.012 A 
HETATM    9  C   LIG     1      14.920  33.538  17.366  1.00  0.00     0.001 A 
HETATM   10  C   LIG     1      14.591  32.243  17.771  1.00  0.00     0.000 A 
HETATM   11  C   LIG     1      14.805  31.849  19.093  1.00  0.00     0.001 A 
HETATM   12  C   LIG     1      15.348  32.750  20.014  1.00  0.00     0.012 A 
ENDBRANCH   1   7
TORSDOF 1
ENDMDL
MODEL 17
REMARK VINA RESULT:      -5.6      1.180      5.114
REMARK  1 active torsions:
REMARK  status: ('A' for Active; 'I' for Inactive)
REMARK    1  A    between atoms: C_1  and  C_2 
ROOT
HETATM    1  C   LIG     1      16.332  35.533  21.517  1.00  0.00    -0.026 A 
HETATM    2  C   LIG     1      16.577  35.823  20.162  1.00  0.00     0.012 A 
HETATM    3  C   LIG     1      16.067  34.995  19.156  1.00  0.00     0.001 A 
HETATM    4  C   LIG     1      15.310  33.871  19.491  1.00  0.00     0.000 A 
HETATM    5  C   LIG     1      15.060  33.572  20.832  1.00  0.00     0.001 A 
HETATM    6  C   LIG     1      15.566  34.396  21.842  1.00  0.00     0.012 A 
ENDROOT
BRANCH   1   7
HETATM    7  C   LIG     1      16.872  36.409  22.587  1.00  0.00    -0.026 A 
HETATM    8  C   LIG     1      17.248  37.737  22.304  1.00  0.00     0.012 A 
HETATM    9  C   LIG     1      17.757  38.559  23.314  1.00  0.00     0.001 A 
HETATM   10  C   LIG     1      17.894  38.070  24.615  1.00  0.00     0.000 A 
HETATM   11  C   LIG     1      17.523  36.756  24.909  1.00  0.00     0.001 A 
HETATM   12  C   LIG     1      17.015  35.928  23.903  1.00  0.00     0.012 A 
ENDBRANCH   1   7
TORSDOF 1
ENDMDL
MODEL 18
REMARK VINA RESULT:      -5.1     16.011     17.358
REMARK  1 active torsions:
REMARK  status: ('A' for Active; 'I' for Inactive)
REMARK    1  A    between atoms: C_1  and  C_2 
ROOT
HETATM    1  C   LIG     1      20.528  22.577  34.011  1.00  0.00    -0.026 A 
HETATM    2  C   LIG     1      19.616  22.939  35.021  1.00  0.00     0.012 A 
HETATM    3  C   LIG     1      20.054  23.622  36.160  1.00  0.00     0.001 A 
HETATM    4  C   LIG     1      21.403  23.950  36.305  1.00  0.00     0.000 A 
HETATM    5  C   LIG     1      22.318  23.597  35.312  1.00  0.00     0.001 A 
HETATM    6  C   LIG     1      21.887  22.915  34.169  1.00  0.00     0.012 A 
ENDROOT
BRANCH   1   7
HETATM    7  C   LIG     1      20.067  21.852  32.801  1.00  0.00    -0.026 A 
HETATM    8  C   LIG     1      19.510  22.553  31.714  1.00  0.00     0.012 A 
HETATM    9  C   LIG     1      19.076  21.867  30.575  1.00  0.00     0.001 A 
HETATM   10  C   LIG     1      19.194  20.477  30.507  1.00  0.00     0.000 A 
HETATM   11  C   LIG     1      19.746  19.770  31.577  1.00  0.00     0.001 A 
HETATM   12  C   LIG     1      20.181  20.451  32.719  1.00  0.00     0.012 A 
ENDBRANCH   1   7
TORSDOF 1
ENDMDL
MODEL 19
REMARK VINA RESULT:      -5.1     16.017     17.978
REMARK  1 active torsions:
REMARK  status: ('A' for Active; 'I' for Inactive)
REMARK    1  A    between atoms: C_1  and  C_2 
ROOT
HETATM    1  C   LIG     1      20.042  21.830  32.776  1.00  0.00    -0.026 A 
HETATM    2  C   LIG     1      19.509  22.529  31.677  1.00  0.00     0.012 A 
HETATM    3  C   LIG     1      19.078  21.838  30.539  1.00  0.00     0.001 A 
HETATM    4  C   LIG     1      19.176  20.446  30.486  1.00  0.00     0.000 A 
HETATM    5  C   LIG     1      19.704  19.741  31.570  1.00  0.00     0.001 A 
HETATM    6  C   LIG     1      20.135  20.426  32.710  1.00  0.00     0.012 A 
ENDROOT
BRANCH   1   7
HETATM    7  C   LIG     1      20.501  22.561  33.985  1.00  0.00    -0.026 A 
HETATM    8  C   LIG     1      21.852  22.928  34.130  1.00  0.00     0.012 A 
HETATM    9  C   LIG     1      22.281  23.616  35.270  1.00  0.00     0.001 A 
HETATM   10  C   LIG     1      21.368  23.947  36.274  1.00  0.00     0.000 A 
HETATM   11  C   LIG     1      20.024  23.590  36.141  1.00  0.00     0.001 A 
HETATM   12  C   LIG     1      19.591  22.901  35.004  1.00  0.00     0.012 A 
ENDBRANCH   1   7
TORSDOF 1
ENDMDL
MODEL 20
REMARK VINA RESULT:      -4.6     15.699     16.470
REMARK  1 active torsions:
REMARK  status: ('A' for Active; 'I' for Inactive)
REMARK    1  A    between atoms: C_1  and  C_2 
ROOT
HETATM    1  C   LIG     1      26.736  29.415  35.180  1.00  0.00    -0.026 A 
HETATM    2  C   LIG     1      26.898  28.720  36.394  1.00  0.00     0.012 A 
HETATM    3  C   LIG     1      26.526  29.312  37.605  1.00  0.00     0.001 A 
HETATM    4  C   LIG     1      25.990  30.602  37.619  1.00  0.00     0.000 A 
HETATM    5  C   LIG     1      25.825  31.302  36.423  1.00  0.00     0.001 A 
HETATM    6  C   LIG     1      26.194  30.715  35.208  1.00  0.00     0.012 A 
ENDROOT
BRANCH   1   7
HETATM    7  C   LIG     1      27.130  28.790  33.893  1.00  0.00    -0.026 A 
HETATM    8  C   LIG     1      26.316  27.810  33.293  1.00  0.00     0.012 A 
HETATM    9  C   LIG     1      26.691  27.222  32.081  1.00  0.00     0.001 A 
HETATM   10  C   LIG     1      27.877  27.606  31.453  1.00  0.00     0.000 A 
HETATM   11  C   LIG     1      28.693  28.578  32.036  1.00  0.00     0.001 A 
HETATM   12  C   LIG     1      28.324  29.167  33.249  1.00  0.00     0.012 A 
ENDBRANCH   1   7
TORSDOF 1
ENDMDL
