REMARK  2 active torsions:
REMARK  status: ('A' for Active; 'I' for Inactive)
REMARK    1  A    between atoms: O_1  and  C_2 
REMARK    2  A    between atoms: C_5  and  C_6 
ROOT
HETATM    1  C   LIG     1       3.299  -0.200   0.114  1.00  0.00     0.065 A 
HETATM    2  C   LIG     1       2.664   0.653  -0.797  1.00  0.00     0.037 A 
HETATM    3  C   LIG     1       1.269   0.729  -0.835  1.00  0.00     0.015 A 
HETATM    4  C   LIG     1       0.488  -0.050   0.039  1.00  0.00    -0.026 A 
HETATM    5  C   LIG     1       1.136  -0.905   0.950  1.00  0.00     0.015 A 
HETATM    6  C   LIG     1       2.532  -0.978   0.985  1.00  0.00     0.037 A 
ENDROOT
BRANCH   4   7
HETATM    7  C   LIG     1      -0.995   0.028   0.001  1.00  0.00    -0.026 A 
HETATM    8  C   LIG     1      -1.642   1.268  -0.167  1.00  0.00     0.012 A 
HETATM    9  C   LIG     1      -3.038   1.339  -0.202  1.00  0.00     0.001 A 
HETATM   10  C   LIG     1      -3.803   0.177  -0.072  1.00  0.00     0.000 A 
HETATM   11  C   LIG     1      -3.173  -1.058   0.094  1.00  0.00     0.001 A 
HETATM   12  C   LIG     1      -1.777  -1.135   0.131  1.00  0.00     0.012 A 
ENDBRANCH   4   7
BRANCH   1  13
HETATM   13  O   LIG     1       4.689  -0.283   0.160  1.00  0.00    -0.361 OA
HETATM   14  H   LIG     1       5.273   0.267  -0.459  1.00  0.00     0.217 HD
ENDBRANCH   1  13
TORSDOF 2
