MODEL 1
REMARK VINA RESULT:      -7.9      0.000      0.000
REMARK  2 active torsions:
REMARK  status: ('A' for Active; 'I' for Inactive)
REMARK    1  A    between atoms: O_1  and  C_2 
REMARK    2  A    between atoms: C_5  and  C_6 
ROOT
HETATM    1  C   LIG     1      15.933  35.124  19.950  1.00  0.00     0.065 A 
HETATM    2  C   LIG     1      16.979  36.024  20.186  1.00  0.00     0.037 A 
HETATM    3  C   LIG     1      17.401  36.286  21.493  1.00  0.00     0.015 A 
HETATM    4  C   LIG     1      16.779  35.651  22.584  1.00  0.00    -0.026 A 
HETATM    5  C   LIG     1      15.727  34.750  22.336  1.00  0.00     0.015 A 
HETATM    6  C   LIG     1      15.308  34.490  21.027  1.00  0.00     0.037 A 
ENDROOT
BRANCH   4   7
HETATM    7  C   LIG     1      17.224  35.928  23.974  1.00  0.00    -0.026 A 
HETATM    8  C   LIG     1      17.510  34.869  24.857  1.00  0.00     0.012 A 
HETATM    9  C   LIG     1      17.929  35.132  26.165  1.00  0.00     0.001 A 
HETATM   10  C   LIG     1      18.068  36.450  26.606  1.00  0.00     0.000 A 
HETATM   11  C   LIG     1      17.788  37.509  25.739  1.00  0.00     0.001 A 
HETATM   12  C   LIG     1      17.368  37.252  24.430  1.00  0.00     0.012 A 
ENDBRANCH   4   7
BRANCH   1  13
HETATM   13  O   LIG     1      15.505  34.856  18.651  1.00  0.00    -0.361 OA
HETATM   14  H   LIG     1      15.238  35.600  18.018  1.00  0.00     0.217 HD
ENDBRANCH   1  13
TORSDOF 2
ENDMDL
MODEL 2
REMARK VINA RESULT:      -7.2      2.699      4.278
REMARK  2 active torsions:
REMARK  status: ('A' for Active; 'I' for Inactive)
REMARK    1  A    between atoms: O_1  and  C_2 
REMARK    2  A    between atoms: C_5  and  C_6 
ROOT
HETATM    1  C   LIG     1      15.113  34.178  21.255  1.00  0.00     0.065 A 
HETATM    2  C   LIG     1      15.434  34.529  19.938  1.00  0.00     0.037 A 
HETATM    3  C   LIG     1      16.417  35.490  19.686  1.00  0.00     0.015 A 
HETATM    4  C   LIG     1      17.092  36.116  20.750  1.00  0.00    -0.026 A 
HETATM    5  C   LIG     1      16.761  35.757  22.070  1.00  0.00     0.015 A 
HETATM    6  C   LIG     1      15.778  34.794  22.318  1.00  0.00     0.037 A 
ENDROOT
BRANCH   4   7
HETATM    7  C   LIG     1      18.137  37.138  20.485  1.00  0.00    -0.026 A 
HETATM    8  C   LIG     1      19.178  36.877  19.572  1.00  0.00     0.012 A 
HETATM    9  C   LIG     1      20.161  37.841  19.325  1.00  0.00     0.001 A 
HETATM   10  C   LIG     1      20.116  39.073  19.982  1.00  0.00     0.000 A 
HETATM   11  C   LIG     1      19.088  39.343  20.888  1.00  0.00     0.001 A 
HETATM   12  C   LIG     1      18.103  38.383  21.140  1.00  0.00     0.012 A 
ENDBRANCH   4   7
BRANCH   1  13
HETATM   13  O   LIG     1      14.135  33.221  21.518  1.00  0.00    -0.361 OA
HETATM   14  H   LIG     1      13.410  33.380  22.207  1.00  0.00     0.217 HD
ENDBRANCH   1  13
TORSDOF 2
ENDMDL
MODEL 3
REMARK VINA RESULT:      -6.8      2.649      3.575
REMARK  2 active torsions:
REMARK  status: ('A' for Active; 'I' for Inactive)
REMARK    1  A    between atoms: O_1  and  C_2 
REMARK    2  A    between atoms: C_5  and  C_6 
ROOT
HETATM    1  C   LIG     1      18.907  38.884  18.873  1.00  0.00     0.065 A 
HETATM    2  C   LIG     1      18.754  37.494  18.932  1.00  0.00     0.037 A 
HETATM    3  C   LIG     1      18.369  36.878  20.126  1.00  0.00     0.015 A 
HETATM    4  C   LIG     1      18.133  37.647  21.281  1.00  0.00    -0.026 A 
HETATM    5  C   LIG     1      18.290  39.044  21.211  1.00  0.00     0.015 A 
HETATM    6  C   LIG     1      18.675  39.656  20.014  1.00  0.00     0.037 A 
ENDROOT
BRANCH   4   7
HETATM    7  C   LIG     1      17.724  36.997  22.552  1.00  0.00    -0.026 A 
HETATM    8  C   LIG     1      17.334  35.643  22.570  1.00  0.00     0.012 A 
HETATM    9  C   LIG     1      16.949  35.033  23.768  1.00  0.00     0.001 A 
HETATM   10  C   LIG     1      16.951  35.763  24.959  1.00  0.00     0.000 A 
HETATM   11  C   LIG     1      17.336  37.105  24.954  1.00  0.00     0.001 A 
HETATM   12  C   LIG     1      17.720  37.721  23.759  1.00  0.00     0.012 A 
ENDBRANCH   4   7
BRANCH   1  13
HETATM   13  O   LIG     1      19.290  39.508  17.687  1.00  0.00    -0.361 OA
HETATM   14  H   LIG     1      19.927  39.063  17.037  1.00  0.00     0.217 HD
ENDBRANCH   1  13
TORSDOF 2
ENDMDL
MODEL 4
REMARK VINA RESULT:      -6.8      7.433     10.813
REMARK  2 active torsions:
REMARK  status: ('A' for Active; 'I' for Inactive)
REMARK    1  A    between atoms: O_1  and  C_2 
REMARK    2  A    between atoms: C_5  and  C_6 
ROOT
HETATM    1  C   LIG     1      15.196  33.403  16.636  1.00  0.00     0.065 A 
HETATM    2  C   LIG     1      14.138  32.582  17.047  1.00  0.00     0.037 A 
HETATM    3  C   LIG     1      13.890  31.373  16.391  1.00  0.00     0.015 A 
HETATM    4  C   LIG     1      14.698  30.968  15.313  1.00  0.00    -0.026 A 
HETATM    5  C   LIG     1      15.757  31.800  14.907  1.00  0.00     0.015 A 
HETATM    6  C   LIG     1      16.002  33.009  15.565  1.00  0.00     0.037 A 
ENDROOT
BRANCH   4   7
HETATM    7  C   LIG     1      14.437  29.683  14.613  1.00  0.00    -0.026 A 
HETATM    8  C   LIG     1      13.120  29.208  14.458  1.00  0.00     0.012 A 
HETATM    9  C   LIG     1      12.876  27.999  13.800  1.00  0.00     0.001 A 
HETATM   10  C   LIG     1      13.941  27.252  13.289  1.00  0.00     0.000 A 
HETATM   11  C   LIG     1      15.251  27.713  13.436  1.00  0.00     0.001 A 
HETATM   12  C   LIG     1      15.500  28.921  14.094  1.00  0.00     0.012 A 
ENDBRANCH   4   7
BRANCH   1  13
HETATM   13  O   LIG     1      15.451  34.610  17.283  1.00  0.00    -0.361 OA
HETATM   14  H   LIG     1      15.265  34.731  18.271  1.00  0.00     0.217 HD
ENDBRANCH   1  13
TORSDOF 2
ENDMDL
MODEL 5
REMARK VINA RESULT:      -6.6      3.005      5.417
REMARK  2 active torsions:
REMARK  status: ('A' for Active; 'I' for Inactive)
REMARK    1  A    between atoms: O_1  and  C_2 
REMARK    2  A    between atoms: C_5  and  C_6 
ROOT
HETATM    1  C   LIG     1      17.333  36.065  25.182  1.00  0.00     0.065 A 
HETATM    2  C   LIG     1      17.102  35.291  24.038  1.00  0.00     0.037 A 
HETATM    3  C   LIG     1      17.389  35.805  22.771  1.00  0.00     0.015 A 
HETATM    4  C   LIG     1      17.913  37.104  22.629  1.00  0.00    -0.026 A 
HETATM    5  C   LIG     1      18.141  37.874  23.785  1.00  0.00     0.015 A 
HETATM    6  C   LIG     1      17.852  37.356  25.052  1.00  0.00     0.037 A 
ENDROOT
BRANCH   4   7
HETATM    7  C   LIG     1      18.219  37.653  21.284  1.00  0.00    -0.026 A 
HETATM    8  C   LIG     1      18.295  36.802  20.164  1.00  0.00     0.012 A 
HETATM    9  C   LIG     1      18.584  37.322  18.898  1.00  0.00     0.001 A 
HETATM   10  C   LIG     1      18.799  38.693  18.735  1.00  0.00     0.000 A 
HETATM   11  C   LIG     1      18.726  39.546  19.837  1.00  0.00     0.001 A 
HETATM   12  C   LIG     1      18.438  39.032  21.106  1.00  0.00     0.012 A 
ENDBRANCH   4   7
BRANCH   1  13
HETATM   13  O   LIG     1      17.050  35.562  26.450  1.00  0.00    -0.361 OA
HETATM   14  H   LIG     1      16.444  34.760  26.578  1.00  0.00     0.217 HD
ENDBRANCH   1  13
TORSDOF 2
ENDMDL
MODEL 6
REMARK VINA RESULT:      -6.5      7.908     10.915
REMARK  2 active torsions:
REMARK  status: ('A' for Active; 'I' for Inactive)
REMARK    1  A    between atoms: O_1  and  C_2 
REMARK    2  A    between atoms: C_5  and  C_6 
ROOT
HETATM    1  C   LIG     1      16.397  33.576  15.357  1.00  0.00     0.065 A 
HETATM    2  C   LIG     1      16.749  32.949  14.156  1.00  0.00     0.037 A 
HETATM    3  C   LIG     1      16.179  31.720  13.810  1.00  0.00     0.015 A 
HETATM    4  C   LIG     1      15.248  31.100  14.664  1.00  0.00    -0.026 A 
HETATM    5  C   LIG     1      14.902  31.738  15.869  1.00  0.00     0.015 A 
HETATM    6  C   LIG     1      15.474  32.967  16.212  1.00  0.00     0.037 A 
ENDROOT
BRANCH   4   7
HETATM    7  C   LIG     1      14.641  29.794  14.299  1.00  0.00    -0.026 A 
HETATM    8  C   LIG     1      15.449  28.728  13.857  1.00  0.00     0.012 A 
HETATM    9  C   LIG     1      14.875  27.500  13.514  1.00  0.00     0.001 A 
HETATM   10  C   LIG     1      13.493  27.321  13.610  1.00  0.00     0.000 A 
HETATM   11  C   LIG     1      12.682  28.369  14.049  1.00  0.00     0.001 A 
HETATM   12  C   LIG     1      13.250  29.600  14.392  1.00  0.00     0.012 A 
ENDBRANCH   4   7
BRANCH   1  13
HETATM   13  O   LIG     1      16.959  34.801  15.711  1.00  0.00    -0.361 OA
HETATM   14  H   LIG     1      16.761  35.645  15.187  1.00  0.00     0.217 HD
ENDBRANCH   1  13
TORSDOF 2
ENDMDL
MODEL 7
REMARK VINA RESULT:      -6.4      2.662      5.558
REMARK  2 active torsions:
REMARK  status: ('A' for Active; 'I' for Inactive)
REMARK    1  A    between atoms: O_1  and  C_2 
REMARK    2  A    between atoms: C_5  and  C_6 
ROOT
HETATM    1  C   LIG     1      18.092  36.560  26.077  1.00  0.00     0.065 A 
HETATM    2  C   LIG     1      17.791  35.231  25.752  1.00  0.00     0.037 A 
HETATM    3  C   LIG     1      17.337  34.906  24.471  1.00  0.00     0.015 A 
HETATM    4  C   LIG     1      17.176  35.907  23.495  1.00  0.00    -0.026 A 
HETATM    5  C   LIG     1      17.480  37.240  23.833  1.00  0.00     0.015 A 
HETATM    6  C   LIG     1      17.934  37.561  25.116  1.00  0.00     0.037 A 
ENDROOT
BRANCH   4   7
HETATM    7  C   LIG     1      16.694  35.565  22.133  1.00  0.00    -0.026 A 
HETATM    8  C   LIG     1      17.278  36.159  20.997  1.00  0.00     0.012 A 
HETATM    9  C   LIG     1      16.822  35.836  19.715  1.00  0.00     0.001 A 
HETATM   10  C   LIG     1      15.782  34.918  19.552  1.00  0.00     0.000 A 
HETATM   11  C   LIG     1      15.195  34.321  20.670  1.00  0.00     0.001 A 
HETATM   12  C   LIG     1      15.647  34.642  21.955  1.00  0.00     0.012 A 
ENDBRANCH   4   7
BRANCH   1  13
HETATM   13  O   LIG     1      18.545  36.894  27.352  1.00  0.00    -0.361 OA
HETATM   14  H   LIG     1      19.483  37.246  27.505  1.00  0.00     0.217 HD
ENDBRANCH   1  13
TORSDOF 2
ENDMDL
MODEL 8
REMARK VINA RESULT:      -6.3      3.111      5.786
REMARK  2 active torsions:
REMARK  status: ('A' for Active; 'I' for Inactive)
REMARK    1  A    between atoms: O_1  and  C_2 
REMARK    2  A    between atoms: C_5  and  C_6 
ROOT
HETATM    1  C   LIG     1      16.628  37.465  22.302  1.00  0.00     0.065 A 
HETATM    2  C   LIG     1      17.566  36.944  21.402  1.00  0.00     0.037 A 
HETATM    3  C   LIG     1      17.211  35.904  20.539  1.00  0.00     0.015 A 
HETATM    4  C   LIG     1      15.910  35.368  20.566  1.00  0.00    -0.026 A 
HETATM    5  C   LIG     1      14.975  35.897  21.475  1.00  0.00     0.015 A 
HETATM    6  C   LIG     1      15.335  36.939  22.336  1.00  0.00     0.037 A 
ENDROOT
BRANCH   4   7
HETATM    7  C   LIG     1      15.530  34.261  19.650  1.00  0.00    -0.026 A 
HETATM    8  C   LIG     1      15.299  32.965  20.152  1.00  0.00     0.012 A 
HETATM    9  C   LIG     1      14.941  31.925  19.288  1.00  0.00     0.001 A 
HETATM   10  C   LIG     1      14.808  32.166  17.918  1.00  0.00     0.000 A 
HETATM   11  C   LIG     1      15.033  33.446  17.410  1.00  0.00     0.001 A 
HETATM   12  C   LIG     1      15.392  34.490  18.268  1.00  0.00     0.012 A 
ENDBRANCH   4   7
BRANCH   1  13
HETATM   13  O   LIG     1      16.972  38.503  23.166  1.00  0.00    -0.361 OA
HETATM   14  H   LIG     1      17.162  39.437  22.823  1.00  0.00     0.217 HD
ENDBRANCH   1  13
TORSDOF 2
ENDMDL
MODEL 9
REMARK VINA RESULT:      -6.3      4.826      7.131
REMARK  2 active torsions:
REMARK  status: ('A' for Active; 'I' for Inactive)
REMARK    1  A    between atoms: O_1  and  C_2 
REMARK    2  A    between atoms: C_5  and  C_6 
ROOT
HETATM    1  C   LIG     1      14.546  30.481  14.500  1.00  0.00     0.065 A 
HETATM    2  C   LIG     1      15.649  31.341  14.577  1.00  0.00     0.037 A 
HETATM    3  C   LIG     1      15.853  32.125  15.716  1.00  0.00     0.015 A 
HETATM    4  C   LIG     1      14.953  32.061  16.796  1.00  0.00    -0.026 A 
HETATM    5  C   LIG     1      13.846  31.195  16.709  1.00  0.00     0.015 A 
HETATM    6  C   LIG     1      13.646  30.412  15.567  1.00  0.00     0.037 A 
ENDROOT
BRANCH   4   7
HETATM    7  C   LIG     1      15.166  32.893  18.008  1.00  0.00    -0.026 A 
HETATM    8  C   LIG     1      15.171  32.305  19.288  1.00  0.00     0.012 A 
HETATM    9  C   LIG     1      15.371  33.090  20.427  1.00  0.00     0.001 A 
HETATM   10  C   LIG     1      15.570  34.468  20.304  1.00  0.00     0.000 A 
HETATM   11  C   LIG     1      15.568  35.062  19.040  1.00  0.00     0.001 A 
HETATM   12  C   LIG     1      15.367  34.282  17.897  1.00  0.00     0.012 A 
ENDBRANCH   4   7
BRANCH   1  13
HETATM   13  O   LIG     1      14.334  29.696  13.370  1.00  0.00    -0.361 OA
HETATM   14  H   LIG     1      15.099  29.222  12.903  1.00  0.00     0.217 HD
ENDBRANCH   1  13
TORSDOF 2
ENDMDL
MODEL 10
REMARK VINA RESULT:      -6.3      2.888      3.939
REMARK  2 active torsions:
REMARK  status: ('A' for Active; 'I' for Inactive)
REMARK    1  A    between atoms: O_1  and  C_2 
REMARK    2  A    between atoms: C_5  and  C_6 
ROOT
HETATM    1  C   LIG     1      14.637  32.206  18.371  1.00  0.00     0.065 A 
HETATM    2  C   LIG     1      14.917  33.416  17.724  1.00  0.00     0.037 A 
HETATM    3  C   LIG     1      15.430  34.498  18.445  1.00  0.00     0.015 A 
HETATM    4  C   LIG     1      15.669  34.385  19.828  1.00  0.00    -0.026 A 
HETATM    5  C   LIG     1      15.382  33.165  20.469  1.00  0.00     0.015 A 
HETATM    6  C   LIG     1      14.869  32.085  19.744  1.00  0.00     0.037 A 
ENDROOT
BRANCH   4   7
HETATM    7  C   LIG     1      16.213  35.533  20.597  1.00  0.00    -0.026 A 
HETATM    8  C   LIG     1      15.495  36.071  21.683  1.00  0.00     0.012 A 
HETATM    9  C   LIG     1      16.009  37.152  22.406  1.00  0.00     0.001 A 
HETATM   10  C   LIG     1      17.244  37.706  22.056  1.00  0.00     0.000 A 
HETATM   11  C   LIG     1      17.965  37.180  20.982  1.00  0.00     0.001 A 
HETATM   12  C   LIG     1      17.455  36.100  20.255  1.00  0.00     0.012 A 
ENDBRANCH   4   7
BRANCH   1  13
HETATM   13  O   LIG     1      14.126  31.122  17.662  1.00  0.00    -0.361 OA
HETATM   14  H   LIG     1      13.186  30.778  17.824  1.00  0.00     0.217 HD
ENDBRANCH   1  13
TORSDOF 2
ENDMDL
MODEL 11
REMARK VINA RESULT:      -6.1      3.162      4.947
REMARK  2 active torsions:
REMARK  status: ('A' for Active; 'I' for Inactive)
REMARK    1  A    between atoms: O_1  and  C_2 
REMARK    2  A    between atoms: C_5  and  C_6 
ROOT
HETATM    1  C   LIG     1      20.031  38.895  19.577  1.00  0.00     0.065 A 
HETATM    2  C   LIG     1      19.011  39.280  20.455  1.00  0.00     0.037 A 
HETATM    3  C   LIG     1      18.048  38.353  20.864  1.00  0.00     0.015 A 
HETATM    4  C   LIG     1      18.092  37.025  20.399  1.00  0.00    -0.026 A 
HETATM    5  C   LIG     1      19.122  36.649  19.516  1.00  0.00     0.015 A 
HETATM    6  C   LIG     1      20.083  37.580  19.109  1.00  0.00     0.037 A 
ENDROOT
BRANCH   4   7
HETATM    7  C   LIG     1      17.071  36.038  20.832  1.00  0.00    -0.026 A 
HETATM    8  C   LIG     1      16.280  35.363  19.881  1.00  0.00     0.012 A 
HETATM    9  C   LIG     1      15.318  34.435  20.290  1.00  0.00     0.001 A 
HETATM   10  C   LIG     1      15.136  34.167  21.649  1.00  0.00     0.000 A 
HETATM   11  C   LIG     1      15.914  34.828  22.601  1.00  0.00     0.001 A 
HETATM   12  C   LIG     1      16.877  35.759  22.198  1.00  0.00     0.012 A 
ENDBRANCH   4   7
BRANCH   1  13
HETATM   13  O   LIG     1      20.996  39.811  19.163  1.00  0.00    -0.361 OA
HETATM   14  H   LIG     1      21.320  40.551  19.775  1.00  0.00     0.217 HD
ENDBRANCH   1  13
TORSDOF 2
ENDMDL
MODEL 12
REMARK VINA RESULT:      -6.1      2.776      3.722
REMARK  2 active torsions:
REMARK  status: ('A' for Active; 'I' for Inactive)
REMARK    1  A    between atoms: O_1  and  C_2 
REMARK    2  A    between atoms: C_5  and  C_6 
ROOT
HETATM    1  C   LIG     1      15.023  33.484  20.254  1.00  0.00     0.065 A 
HETATM    2  C   LIG     1      15.571  34.169  19.162  1.00  0.00     0.037 A 
HETATM    3  C   LIG     1      16.369  35.298  19.369  1.00  0.00     0.015 A 
HETATM    4  C   LIG     1      16.629  35.759  20.672  1.00  0.00    -0.026 A 
HETATM    5  C   LIG     1      16.073  35.064  21.763  1.00  0.00     0.015 A 
HETATM    6  C   LIG     1      15.275  33.935  21.552  1.00  0.00     0.037 A 
ENDROOT
BRANCH   4   7
HETATM    7  C   LIG     1      17.477  36.959  20.895  1.00  0.00    -0.026 A 
HETATM    8  C   LIG     1      17.241  37.806  21.995  1.00  0.00     0.012 A 
HETATM    9  C   LIG     1      18.040  38.935  22.203  1.00  0.00     0.001 A 
HETATM   10  C   LIG     1      19.081  39.230  21.318  1.00  0.00     0.000 A 
HETATM   11  C   LIG     1      19.324  38.397  20.225  1.00  0.00     0.001 A 
HETATM   12  C   LIG     1      18.528  37.267  20.012  1.00  0.00     0.012 A 
ENDBRANCH   4   7
BRANCH   1  13
HETATM   13  O   LIG     1      14.226  32.358  20.059  1.00  0.00    -0.361 OA
HETATM   14  H   LIG     1      13.349  32.410  19.554  1.00  0.00     0.217 HD
ENDBRANCH   1  13
TORSDOF 2
ENDMDL
MODEL 13
REMARK VINA RESULT:      -6.0      2.493      5.426
REMARK  2 active torsions:
REMARK  status: ('A' for Active; 'I' for Inactive)
REMARK    1  A    between atoms: O_1  and  C_2 
REMARK    2  A    between atoms: C_5  and  C_6 
ROOT
HETATM    1  C   LIG     1      17.319  37.310  24.463  1.00  0.00     0.065 A 
HETATM    2  C   LIG     1      17.338  35.912  24.533  1.00  0.00     0.037 A 
HETATM    3  C   LIG     1      16.934  35.146  23.436  1.00  0.00     0.015 A 
HETATM    4  C   LIG     1      16.503  35.771  22.250  1.00  0.00    -0.026 A 
HETATM    5  C   LIG     1      16.487  37.177  22.190  1.00  0.00     0.015 A 
HETATM    6  C   LIG     1      16.892  37.939  23.291  1.00  0.00     0.037 A 
ENDROOT
BRANCH   4   7
HETATM    7  C   LIG     1      16.073  34.961  21.082  1.00  0.00    -0.026 A 
HETATM    8  C   LIG     1      15.612  33.641  21.257  1.00  0.00     0.012 A 
HETATM    9  C   LIG     1      15.208  32.880  20.156  1.00  0.00     0.001 A 
HETATM   10  C   LIG     1      15.258  33.426  18.870  1.00  0.00     0.000 A 
HETATM   11  C   LIG     1      15.712  34.733  18.684  1.00  0.00     0.001 A 
HETATM   12  C   LIG     1      16.118  35.499  19.782  1.00  0.00     0.012 A 
ENDBRANCH   4   7
BRANCH   1  13
HETATM   13  O   LIG     1      17.719  38.082  25.552  1.00  0.00    -0.361 OA
HETATM   14  H   LIG     1      17.619  39.090  25.551  1.00  0.00     0.217 HD
ENDBRANCH   1  13
TORSDOF 2
ENDMDL
MODEL 14
REMARK VINA RESULT:      -6.0      1.082      1.935
REMARK  2 active torsions:
REMARK  status: ('A' for Active; 'I' for Inactive)
REMARK    1  A    between atoms: O_1  and  C_2 
REMARK    2  A    between atoms: C_5  and  C_6 
ROOT
HETATM    1  C   LIG     1      15.311  33.945  19.418  1.00  0.00     0.065 A 
HETATM    2  C   LIG     1      16.094  35.094  19.253  1.00  0.00     0.037 A 
HETATM    3  C   LIG     1      16.590  35.773  20.370  1.00  0.00     0.015 A 
HETATM    4  C   LIG     1      16.308  35.312  21.669  1.00  0.00    -0.026 A 
HETATM    5  C   LIG     1      15.519  34.157  21.823  1.00  0.00     0.015 A 
HETATM    6  C   LIG     1      15.024  33.480  20.704  1.00  0.00     0.037 A 
ENDROOT
BRANCH   4   7
HETATM    7  C   LIG     1      16.834  36.031  22.858  1.00  0.00    -0.026 A 
HETATM    8  C   LIG     1      17.139  37.405  22.785  1.00  0.00     0.012 A 
HETATM    9  C   LIG     1      17.633  38.080  23.906  1.00  0.00     0.001 A 
HETATM   10  C   LIG     1      17.828  37.395  25.108  1.00  0.00     0.000 A 
HETATM   11  C   LIG     1      17.528  36.034  25.192  1.00  0.00     0.001 A 
HETATM   12  C   LIG     1      17.034  35.353  24.075  1.00  0.00     0.012 A 
ENDBRANCH   4   7
BRANCH   1  13
HETATM   13  O   LIG     1      14.811  33.261  18.312  1.00  0.00    -0.361 OA
HETATM   14  H   LIG     1      13.948  33.542  17.861  1.00  0.00     0.217 HD
ENDBRANCH   1  13
TORSDOF 2
ENDMDL
MODEL 15
REMARK VINA RESULT:      -5.9      7.759     10.426
REMARK  2 active torsions:
REMARK  status: ('A' for Active; 'I' for Inactive)
REMARK    1  A    between atoms: O_1  and  C_2 
REMARK    2  A    between atoms: C_5  and  C_6 
ROOT
HETATM    1  C   LIG     1      13.856  27.476  13.074  1.00  0.00     0.065 A 
HETATM    2  C   LIG     1      15.163  27.942  13.262  1.00  0.00     0.037 A 
HETATM    3  C   LIG     1      15.400  29.074  14.046  1.00  0.00     0.015 A 
HETATM    4  C   LIG     1      14.331  29.758  14.653  1.00  0.00    -0.026 A 
HETATM    5  C   LIG     1      13.021  29.283  14.457  1.00  0.00     0.015 A 
HETATM    6  C   LIG     1      12.788  28.149  13.671  1.00  0.00     0.037 A 
ENDROOT
BRANCH   4   7
HETATM    7  C   LIG     1      14.580  30.962  15.487  1.00  0.00    -0.026 A 
HETATM    8  C   LIG     1      15.593  31.877  15.138  1.00  0.00     0.012 A 
HETATM    9  C   LIG     1      15.825  33.009  15.924  1.00  0.00     0.001 A 
HETATM   10  C   LIG     1      15.051  33.243  17.064  1.00  0.00     0.000 A 
HETATM   11  C   LIG     1      14.043  32.344  17.419  1.00  0.00     0.001 A 
HETATM   12  C   LIG     1      13.807  31.209  16.637  1.00  0.00     0.012 A 
ENDBRANCH   4   7
BRANCH   1  13
HETATM   13  O   LIG     1      13.608  26.348  12.294  1.00  0.00    -0.361 OA
HETATM   14  H   LIG     1      13.281  26.426  11.338  1.00  0.00     0.217 HD
ENDBRANCH   1  13
TORSDOF 2
ENDMDL
MODEL 16
REMARK VINA RESULT:      -5.9      8.547      9.884
REMARK  2 active torsions:
REMARK  status: ('A' for Active; 'I' for Inactive)
REMARK    1  A    between atoms: O_1  and  C_2 
REMARK    2  A    between atoms: C_5  and  C_6 
ROOT
HETATM    1  C   LIG     1      18.595  33.631  13.419  1.00  0.00     0.065 A 
HETATM    2  C   LIG     1      17.532  33.257  12.588  1.00  0.00     0.037 A 
HETATM    3  C   LIG     1      16.416  32.607  13.122  1.00  0.00     0.015 A 
HETATM    4  C   LIG     1      16.349  32.319  14.498  1.00  0.00    -0.026 A 
HETATM    5  C   LIG     1      17.423  32.697  15.324  1.00  0.00     0.015 A 
HETATM    6  C   LIG     1      18.538  33.348  14.786  1.00  0.00     0.037 A 
ENDROOT
BRANCH   4   7
HETATM    7  C   LIG     1      15.165  31.627  15.068  1.00  0.00    -0.026 A 
HETATM    8  C   LIG     1      14.603  32.057  16.287  1.00  0.00     0.012 A 
HETATM    9  C   LIG     1      13.489  31.404  16.822  1.00  0.00     0.001 A 
HETATM   10  C   LIG     1      12.922  30.318  16.150  1.00  0.00     0.000 A 
HETATM   11  C   LIG     1      13.469  29.883  14.941  1.00  0.00     0.001 A 
HETATM   12  C   LIG     1      14.584  30.532  14.401  1.00  0.00     0.012 A 
ENDBRANCH   4   7
BRANCH   1  13
HETATM   13  O   LIG     1      19.712  34.280  12.897  1.00  0.00    -0.361 OA
HETATM   14  H   LIG     1      19.716  34.648  11.953  1.00  0.00     0.217 HD
ENDBRANCH   1  13
TORSDOF 2
ENDMDL
MODEL 17
REMARK VINA RESULT:      -5.8      8.401     10.612
REMARK  2 active torsions:
REMARK  status: ('A' for Active; 'I' for Inactive)
REMARK    1  A    between atoms: O_1  and  C_2 
REMARK    2  A    between atoms: C_5  and  C_6 
ROOT
HETATM    1  C   LIG     1      13.220  28.067  14.014  1.00  0.00     0.065 A 
HETATM    2  C   LIG     1      14.557  28.032  13.598  1.00  0.00     0.037 A 
HETATM    3  C   LIG     1      15.367  29.162  13.736  1.00  0.00     0.015 A 
HETATM    4  C   LIG     1      14.849  30.347  14.292  1.00  0.00    -0.026 A 
HETATM    5  C   LIG     1      13.504  30.372  14.706  1.00  0.00     0.015 A 
HETATM    6  C   LIG     1      12.697  29.239  14.566  1.00  0.00     0.037 A 
ENDROOT
BRANCH   4   7
HETATM    7  C   LIG     1      15.707  31.551  14.440  1.00  0.00    -0.026 A 
HETATM    8  C   LIG     1      16.470  32.023  13.354  1.00  0.00     0.012 A 
HETATM    9  C   LIG     1      17.277  33.156  13.496  1.00  0.00     0.001 A 
HETATM   10  C   LIG     1      17.331  33.831  14.718  1.00  0.00     0.000 A 
HETATM   11  C   LIG     1      16.578  33.373  15.801  1.00  0.00     0.001 A 
HETATM   12  C   LIG     1      15.770  32.240  15.666  1.00  0.00     0.012 A 
ENDBRANCH   4   7
BRANCH   1  13
HETATM   13  O   LIG     1      12.405  26.945  13.881  1.00  0.00    -0.361 OA
HETATM   14  H   LIG     1      11.441  26.951  14.194  1.00  0.00     0.217 HD
ENDBRANCH   1  13
TORSDOF 2
ENDMDL
MODEL 18
REMARK VINA RESULT:      -5.8      1.791      3.075
REMARK  2 active torsions:
REMARK  status: ('A' for Active; 'I' for Inactive)
REMARK    1  A    between atoms: O_1  and  C_2 
REMARK    2  A    between atoms: C_5  and  C_6 
ROOT
HETATM    1  C   LIG     1      15.150  32.926  18.334  1.00  0.00     0.065 A 
HETATM    2  C   LIG     1      15.222  32.389  19.625  1.00  0.00     0.037 A 
HETATM    3  C   LIG     1      15.536  33.209  20.712  1.00  0.00     0.015 A 
HETATM    4  C   LIG     1      15.784  34.581  20.522  1.00  0.00    -0.026 A 
HETATM    5  C   LIG     1      15.710  35.112  19.221  1.00  0.00     0.015 A 
HETATM    6  C   LIG     1      15.395  34.288  18.135  1.00  0.00     0.037 A 
ENDROOT
BRANCH   4   7
HETATM    7  C   LIG     1      16.118  35.456  21.676  1.00  0.00    -0.026 A 
HETATM    8  C   LIG     1      16.920  34.975  22.729  1.00  0.00     0.012 A 
HETATM    9  C   LIG     1      17.233  35.800  23.814  1.00  0.00     0.001 A 
HETATM   10  C   LIG     1      16.752  37.111  23.860  1.00  0.00     0.000 A 
HETATM   11  C   LIG     1      15.957  37.599  22.821  1.00  0.00     0.001 A 
HETATM   12  C   LIG     1      15.640  36.778  21.734  1.00  0.00     0.012 A 
ENDBRANCH   4   7
BRANCH   1  13
HETATM   13  O   LIG     1      14.838  32.117  17.243  1.00  0.00    -0.361 OA
HETATM   14  H   LIG     1      15.221  31.184  17.150  1.00  0.00     0.217 HD
ENDBRANCH   1  13
TORSDOF 2
ENDMDL
MODEL 19
REMARK VINA RESULT:      -5.6      8.434     11.954
REMARK  2 active torsions:
REMARK  status: ('A' for Active; 'I' for Inactive)
REMARK    1  A    between atoms: O_1  and  C_2 
REMARK    2  A    between atoms: C_5  and  C_6 
ROOT
HETATM    1  C   LIG     1      14.932  32.022  16.196  1.00  0.00     0.065 A 
HETATM    2  C   LIG     1      13.692  31.570  16.665  1.00  0.00     0.037 A 
HETATM    3  C   LIG     1      13.003  30.567  15.978  1.00  0.00     0.015 A 
HETATM    4  C   LIG     1      13.544  30.002  14.808  1.00  0.00    -0.026 A 
HETATM    5  C   LIG     1      14.790  30.464  14.344  1.00  0.00     0.015 A 
HETATM    6  C   LIG     1      15.477  31.468  15.035  1.00  0.00     0.037 A 
ENDROOT
BRANCH   4   7
HETATM    7  C   LIG     1      12.813  28.937  14.075  1.00  0.00    -0.026 A 
HETATM    8  C   LIG     1      13.403  27.673  13.874  1.00  0.00     0.012 A 
HETATM    9  C   LIG     1      12.714  26.672  13.183  1.00  0.00     0.001 A 
HETATM   10  C   LIG     1      11.430  26.918  12.688  1.00  0.00     0.000 A 
HETATM   11  C   LIG     1      10.835  28.166  12.882  1.00  0.00     0.001 A 
HETATM   12  C   LIG     1      11.520  29.171  13.571  1.00  0.00     0.012 A 
ENDBRANCH   4   7
BRANCH   1  13
HETATM   13  O   LIG     1      15.627  33.021  16.873  1.00  0.00    -0.361 OA
HETATM   14  H   LIG     1      16.640  33.045  16.886  1.00  0.00     0.217 HD
ENDBRANCH   1  13
TORSDOF 2
ENDMDL
