REMARK  3 active torsions:
REMARK  status: ('A' for Active; 'I' for Inactive)
REMARK    1  A    between atoms: N_1  and  C_2 
REMARK    2  A    between atoms: C_7  and  C_8 
REMARK    3  A    between atoms: C_11  and  N_12 
ROOT
HETATM    1  C   LIG     1       3.433   0.229  -0.845  1.00  0.00     0.025 A 
HETATM    2  C   LIG     1       2.459   0.186  -1.851  1.00  0.00     0.030 A 
HETATM    3  C   LIG     1       1.111   0.018  -1.521  1.00  0.00     0.014 A 
HETATM    4  C   LIG     1       3.047   0.102   0.495  1.00  0.00     0.030 A 
HETATM    5  C   LIG     1       1.700  -0.065   0.828  1.00  0.00     0.014 A 
HETATM    6  C   LIG     1       0.716  -0.109  -0.176  1.00  0.00    -0.026 A 
ENDROOT
BRANCH   6   7
HETATM    7  C   LIG     1      -0.716  -0.287   0.176  1.00  0.00    -0.026 A 
HETATM    8  C   LIG     1      -1.544  -1.122  -0.596  1.00  0.00     0.014 A 
HETATM    9  C   LIG     1      -2.892  -1.289  -0.263  1.00  0.00     0.030 A 
HETATM   10  C   LIG     1      -3.433  -0.625   0.845  1.00  0.00     0.025 A 
HETATM   11  C   LIG     1      -2.615   0.208   1.619  1.00  0.00     0.030 A 
HETATM   12  C   LIG     1      -1.267   0.376   1.288  1.00  0.00     0.014 A 
BRANCH  10  13
HETATM   13  N   LIG     1      -4.812  -0.797   1.185  1.00  0.00    -0.399 N 
HETATM   14  H   LIG     1      -5.430  -1.416   0.614  1.00  0.00     0.156 HD
HETATM   15  H   LIG     1      -5.225  -0.306   2.009  1.00  0.00     0.156 HD
ENDBRANCH  10  13
ENDBRANCH   6   7
BRANCH   1  16
HETATM   16  N   LIG     1       4.812   0.400  -1.185  1.00  0.00    -0.399 N 
HETATM   17  H   LIG     1       5.109   0.495  -2.182  1.00  0.00     0.156 HD
HETATM   18  H   LIG     1       5.545   0.433  -0.442  1.00  0.00     0.156 HD
ENDBRANCH   1  16
TORSDOF 3
