MODEL 1
REMARK VINA RESULT:      -9.0      0.000      0.000
REMARK  2 active torsions:
REMARK  status: ('A' for Active; 'I' for Inactive)
REMARK    1  A    between atoms: C_1  and  C_2 
REMARK    2  A    between atoms: C_5  and  C_6 
ROOT
HETATM    1  C   LIG     1      15.564  34.287  19.972  1.00  0.00    -0.026 A 
HETATM    2  C   LIG     1      15.320  32.912  20.131  1.00  0.00     0.013 A 
HETATM    3  C   LIG     1      15.033  32.108  19.026  1.00  0.00     0.013 A 
HETATM    4  C   LIG     1      14.979  32.661  17.735  1.00  0.00    -0.026 A 
HETATM    5  C   LIG     1      15.222  34.037  17.575  1.00  0.00     0.013 A 
HETATM    6  C   LIG     1      15.512  34.840  18.681  1.00  0.00     0.013 A 
ENDROOT
BRANCH   1   7
HETATM    7  C   LIG     1      15.871  35.142  21.148  1.00  0.00    -0.026 A 
HETATM    8  C   LIG     1      16.929  34.812  22.016  1.00  0.00     0.012 A 
HETATM    9  C   LIG     1      17.215  35.617  23.122  1.00  0.00     0.001 A 
HETATM   10  C   LIG     1      16.451  36.759  23.375  1.00  0.00     0.000 A 
HETATM   11  C   LIG     1      15.398  37.096  22.523  1.00  0.00     0.001 A 
HETATM   12  C   LIG     1      15.107  36.294  21.415  1.00  0.00     0.012 A 
ENDBRANCH   1   7
BRANCH   4  13
HETATM   13  C   LIG     1      14.672  31.806  16.559  1.00  0.00    -0.026 A 
HETATM   14  C   LIG     1      13.488  31.047  16.514  1.00  0.00     0.012 A 
HETATM   15  C   LIG     1      13.202  30.243  15.406  1.00  0.00     0.001 A 
HETATM   16  C   LIG     1      14.092  30.189  14.332  1.00  0.00     0.000 A 
HETATM   17  C   LIG     1      15.271  30.939  14.363  1.00  0.00     0.001 A 
HETATM   18  C   LIG     1      15.563  31.743  15.469  1.00  0.00     0.012 A 
ENDBRANCH   4  13
TORSDOF 2
ENDMDL
MODEL 2
REMARK VINA RESULT:      -9.0      0.033      7.406
REMARK  2 active torsions:
REMARK  status: ('A' for Active; 'I' for Inactive)
REMARK    1  A    between atoms: C_1  and  C_2 
REMARK    2  A    between atoms: C_5  and  C_6 
ROOT
HETATM    1  C   LIG     1      14.983  32.665  17.730  1.00  0.00    -0.026 A 
HETATM    2  C   LIG     1      15.058  32.106  19.018  1.00  0.00     0.013 A 
HETATM    3  C   LIG     1      15.338  32.908  20.127  1.00  0.00     0.013 A 
HETATM    4  C   LIG     1      15.552  34.289  19.973  1.00  0.00    -0.026 A 
HETATM    5  C   LIG     1      15.479  34.848  18.685  1.00  0.00     0.013 A 
HETATM    6  C   LIG     1      15.197  34.045  17.577  1.00  0.00     0.013 A 
ENDROOT
BRANCH   1   7
HETATM    7  C   LIG     1      14.685  31.810  16.551  1.00  0.00    -0.026 A 
HETATM    8  C   LIG     1      15.562  31.777  15.451  1.00  0.00     0.012 A 
HETATM    9  C   LIG     1      15.279  30.974  14.343  1.00  0.00     0.001 A 
HETATM   10  C   LIG     1      14.120  30.194  14.320  1.00  0.00     0.000 A 
HETATM   11  C   LIG     1      13.241  30.218  15.405  1.00  0.00     0.001 A 
HETATM   12  C   LIG     1      13.519  31.021  16.516  1.00  0.00     0.012 A 
ENDBRANCH   1   7
BRANCH   4  13
HETATM   13  C   LIG     1      15.851  35.143  21.152  1.00  0.00    -0.026 A 
HETATM   14  C   LIG     1      16.924  34.833  22.008  1.00  0.00     0.012 A 
HETATM   15  C   LIG     1      17.202  35.638  23.117  1.00  0.00     0.001 A 
HETATM   16  C   LIG     1      16.416  36.761  23.382  1.00  0.00     0.000 A 
HETATM   17  C   LIG     1      15.348  37.080  22.539  1.00  0.00     0.001 A 
HETATM   18  C   LIG     1      15.065  36.278  21.430  1.00  0.00     0.012 A 
ENDBRANCH   4  13
TORSDOF 2
ENDMDL
MODEL 3
REMARK VINA RESULT:      -9.0      0.041      7.489
REMARK  2 active torsions:
REMARK  status: ('A' for Active; 'I' for Inactive)
REMARK    1  A    between atoms: C_1  and  C_2 
REMARK    2  A    between atoms: C_5  and  C_6 
ROOT
HETATM    1  C   LIG     1      14.981  32.667  17.717  1.00  0.00    -0.026 A 
HETATM    2  C   LIG     1      15.202  34.047  17.563  1.00  0.00     0.013 A 
HETATM    3  C   LIG     1      15.483  34.850  18.672  1.00  0.00     0.013 A 
HETATM    4  C   LIG     1      15.546  34.292  19.960  1.00  0.00    -0.026 A 
HETATM    5  C   LIG     1      15.323  32.912  20.114  1.00  0.00     0.013 A 
HETATM    6  C   LIG     1      15.045  32.109  19.005  1.00  0.00     0.013 A 
ENDROOT
BRANCH   1   7
HETATM    7  C   LIG     1      14.683  31.813  16.537  1.00  0.00    -0.026 A 
HETATM    8  C   LIG     1      13.525  31.015  16.506  1.00  0.00     0.012 A 
HETATM    9  C   LIG     1      13.247  30.212  15.396  1.00  0.00     0.001 A 
HETATM   10  C   LIG     1      14.120  30.197  14.306  1.00  0.00     0.000 A 
HETATM   11  C   LIG     1      15.273  30.984  14.325  1.00  0.00     0.001 A 
HETATM   12  C   LIG     1      15.556  31.789  15.433  1.00  0.00     0.012 A 
ENDBRANCH   1   7
BRANCH   4  13
HETATM   13  C   LIG     1      15.843  35.146  21.140  1.00  0.00    -0.026 A 
HETATM   14  C   LIG     1      15.056  36.278  21.421  1.00  0.00     0.012 A 
HETATM   15  C   LIG     1      15.338  37.080  22.531  1.00  0.00     0.001 A 
HETATM   16  C   LIG     1      16.406  36.761  23.372  1.00  0.00     0.000 A 
HETATM   17  C   LIG     1      17.195  35.639  23.104  1.00  0.00     0.001 A 
HETATM   18  C   LIG     1      16.918  34.834  21.995  1.00  0.00     0.012 A 
ENDBRANCH   4  13
TORSDOF 2
ENDMDL
MODEL 4
REMARK VINA RESULT:      -9.0      0.042      1.142
REMARK  2 active torsions:
REMARK  status: ('A' for Active; 'I' for Inactive)
REMARK    1  A    between atoms: C_1  and  C_2 
REMARK    2  A    between atoms: C_5  and  C_6 
ROOT
HETATM    1  C   LIG     1      15.564  34.296  19.987  1.00  0.00    -0.026 A 
HETATM    2  C   LIG     1      15.325  32.920  20.142  1.00  0.00     0.013 A 
HETATM    3  C   LIG     1      15.045  32.117  19.033  1.00  0.00     0.013 A 
HETATM    4  C   LIG     1      14.997  32.673  17.744  1.00  0.00    -0.026 A 
HETATM    5  C   LIG     1      15.236  34.050  17.588  1.00  0.00     0.013 A 
HETATM    6  C   LIG     1      15.517  34.852  18.698  1.00  0.00     0.013 A 
ENDROOT
BRANCH   1   7
HETATM    7  C   LIG     1      15.862  35.149  21.168  1.00  0.00    -0.026 A 
HETATM    8  C   LIG     1      15.080  36.286  21.444  1.00  0.00     0.012 A 
HETATM    9  C   LIG     1      15.363  37.088  22.554  1.00  0.00     0.001 A 
HETATM   10  C   LIG     1      16.425  36.763  23.401  1.00  0.00     0.000 A 
HETATM   11  C   LIG     1      17.209  35.637  23.137  1.00  0.00     0.001 A 
HETATM   12  C   LIG     1      16.931  34.833  22.028  1.00  0.00     0.012 A 
ENDBRANCH   1   7
BRANCH   4  13
HETATM   13  C   LIG     1      14.699  31.821  16.563  1.00  0.00    -0.026 A 
HETATM   14  C   LIG     1      13.546  31.014  16.535  1.00  0.00     0.012 A 
HETATM   15  C   LIG     1      13.268  30.212  15.424  1.00  0.00     0.001 A 
HETATM   16  C   LIG     1      14.136  30.207  14.329  1.00  0.00     0.000 A 
HETATM   17  C   LIG     1      15.284  31.004  14.345  1.00  0.00     0.001 A 
HETATM   18  C   LIG     1      15.567  31.807  15.454  1.00  0.00     0.012 A 
ENDBRANCH   4  13
TORSDOF 2
ENDMDL
MODEL 5
REMARK VINA RESULT:      -8.5      0.820      7.541
REMARK  2 active torsions:
REMARK  status: ('A' for Active; 'I' for Inactive)
REMARK    1  A    between atoms: C_1  and  C_2 
REMARK    2  A    between atoms: C_5  and  C_6 
ROOT
HETATM    1  C   LIG     1      15.129  33.101  18.527  1.00  0.00    -0.026 A 
HETATM    2  C   LIG     1      15.676  34.383  18.342  1.00  0.00     0.013 A 
HETATM    3  C   LIG     1      16.002  35.182  19.441  1.00  0.00     0.013 A 
HETATM    4  C   LIG     1      15.785  34.718  20.750  1.00  0.00    -0.026 A 
HETATM    5  C   LIG     1      15.237  33.437  20.935  1.00  0.00     0.013 A 
HETATM    6  C   LIG     1      14.913  32.638  19.835  1.00  0.00     0.013 A 
ENDROOT
BRANCH   1   7
HETATM    7  C   LIG     1      14.783  32.252  17.357  1.00  0.00    -0.026 A 
HETATM    8  C   LIG     1      15.488  32.381  16.145  1.00  0.00     0.012 A 
HETATM    9  C   LIG     1      15.160  31.582  15.046  1.00  0.00     0.001 A 
HETATM   10  C   LIG     1      14.129  30.645  15.143  1.00  0.00     0.000 A 
HETATM   11  C   LIG     1      13.422  30.507  16.340  1.00  0.00     0.001 A 
HETATM   12  C   LIG     1      13.745  31.305  17.442  1.00  0.00     0.012 A 
ENDBRANCH   1   7
BRANCH   4  13
HETATM   13  C   LIG     1      16.131  35.568  21.919  1.00  0.00    -0.026 A 
HETATM   14  C   LIG     1      16.901  35.051  22.978  1.00  0.00     0.012 A 
HETATM   15  C   LIG     1      17.225  35.852  24.077  1.00  0.00     0.001 A 
HETATM   16  C   LIG     1      16.785  37.176  24.132  1.00  0.00     0.000 A 
HETATM   17  C   LIG     1      16.020  37.702  23.088  1.00  0.00     0.001 A 
HETATM   18  C   LIG     1      15.693  36.905  21.986  1.00  0.00     0.012 A 
ENDBRANCH   4  13
TORSDOF 2
ENDMDL
MODEL 6
REMARK VINA RESULT:      -7.6      4.437      7.735
REMARK  2 active torsions:
REMARK  status: ('A' for Active; 'I' for Inactive)
REMARK    1  A    between atoms: C_1  and  C_2 
REMARK    2  A    between atoms: C_5  and  C_6 
ROOT
HETATM    1  C   LIG     1      18.231  33.601  13.017  1.00  0.00    -0.026 A 
HETATM    2  C   LIG     1      17.361  32.612  12.527  1.00  0.00     0.013 A 
HETATM    3  C   LIG     1      16.365  32.072  13.346  1.00  0.00     0.013 A 
HETATM    4  C   LIG     1      16.218  32.509  14.673  1.00  0.00    -0.026 A 
HETATM    5  C   LIG     1      17.088  33.499  15.163  1.00  0.00     0.013 A 
HETATM    6  C   LIG     1      18.083  34.039  14.344  1.00  0.00     0.013 A 
ENDROOT
BRANCH   1   7
HETATM    7  C   LIG     1      19.290  34.175  12.145  1.00  0.00    -0.026 A 
HETATM    8  C   LIG     1      20.625  34.234  12.587  1.00  0.00     0.012 A 
HETATM    9  C   LIG     1      21.619  34.774  11.766  1.00  0.00     0.001 A 
HETATM   10  C   LIG     1      21.294  35.261  10.498  1.00  0.00     0.000 A 
HETATM   11  C   LIG     1      19.972  35.209  10.049  1.00  0.00     0.001 A 
HETATM   12  C   LIG     1      18.974  34.670  10.866  1.00  0.00     0.012 A 
ENDBRANCH   1   7
BRANCH   4  13
HETATM   13  C   LIG     1      15.159  31.935  15.544  1.00  0.00    -0.026 A 
HETATM   14  C   LIG     1      14.987  32.398  16.862  1.00  0.00     0.012 A 
HETATM   15  C   LIG     1      13.991  31.857  17.680  1.00  0.00     0.001 A 
HETATM   16  C   LIG     1      13.154  30.850  17.192  1.00  0.00     0.000 A 
HETATM   17  C   LIG     1      13.314  30.382  15.885  1.00  0.00     0.001 A 
HETATM   18  C   LIG     1      14.310  30.920  15.063  1.00  0.00     0.012 A 
ENDBRANCH   4  13
TORSDOF 2
ENDMDL
MODEL 7
REMARK VINA RESULT:      -7.5      4.479      7.392
REMARK  2 active torsions:
REMARK  status: ('A' for Active; 'I' for Inactive)
REMARK    1  A    between atoms: C_1  and  C_2 
REMARK    2  A    between atoms: C_5  and  C_6 
ROOT
HETATM    1  C   LIG     1      16.327  32.566  14.745  1.00  0.00    -0.026 A 
HETATM    2  C   LIG     1      16.420  32.145  13.407  1.00  0.00     0.013 A 
HETATM    3  C   LIG     1      17.400  32.672  12.563  1.00  0.00     0.013 A 
HETATM    4  C   LIG     1      18.308  33.634  13.036  1.00  0.00    -0.026 A 
HETATM    5  C   LIG     1      18.215  34.056  14.375  1.00  0.00     0.013 A 
HETATM    6  C   LIG     1      17.236  33.527  15.219  1.00  0.00     0.013 A 
ENDROOT
BRANCH   1   7
HETATM    7  C   LIG     1      15.284  32.004  15.643  1.00  0.00    -0.026 A 
HETATM    8  C   LIG     1      15.170  32.449  16.974  1.00  0.00     0.012 A 
HETATM    9  C   LIG     1      14.190  31.919  17.817  1.00  0.00     0.001 A 
HETATM   10  C   LIG     1      13.312  30.941  17.344  1.00  0.00     0.000 A 
HETATM   11  C   LIG     1      13.415  30.490  16.026  1.00  0.00     0.001 A 
HETATM   12  C   LIG     1      14.395  31.017  15.178  1.00  0.00     0.012 A 
ENDBRANCH   1   7
BRANCH   4  13
HETATM   13  C   LIG     1      19.351  34.196  12.138  1.00  0.00    -0.026 A 
HETATM   14  C   LIG     1      20.690  34.283  12.562  1.00  0.00     0.012 A 
HETATM   15  C   LIG     1      21.669  34.813  11.716  1.00  0.00     0.001 A 
HETATM   16  C   LIG     1      21.324  35.258  10.438  1.00  0.00     0.000 A 
HETATM   17  C   LIG     1      19.998  35.176  10.005  1.00  0.00     0.001 A 
HETATM   18  C   LIG     1      19.015  34.648  10.847  1.00  0.00     0.012 A 
ENDBRANCH   4  13
TORSDOF 2
ENDMDL
MODEL 8
REMARK VINA RESULT:      -6.6      3.930     10.468
REMARK  2 active torsions:
REMARK  status: ('A' for Active; 'I' for Inactive)
REMARK    1  A    between atoms: C_1  and  C_2 
REMARK    2  A    between atoms: C_5  and  C_6 
ROOT
HETATM    1  C   LIG     1      13.676  27.333  12.757  1.00  0.00    -0.026 A 
HETATM    2  C   LIG     1      14.989  27.769  13.004  1.00  0.00     0.013 A 
HETATM    3  C   LIG     1      15.232  28.840  13.867  1.00  0.00     0.013 A 
HETATM    4  C   LIG     1      14.168  29.502  14.501  1.00  0.00    -0.026 A 
HETATM    5  C   LIG     1      12.853  29.067  14.254  1.00  0.00     0.013 A 
HETATM    6  C   LIG     1      12.611  27.994  13.392  1.00  0.00     0.013 A 
ENDROOT
BRANCH   1   7
HETATM    7  C   LIG     1      13.417  26.193  11.839  1.00  0.00    -0.026 A 
HETATM    8  C   LIG     1      14.432  25.716  10.988  1.00  0.00     0.012 A 
HETATM    9  C   LIG     1      14.187  24.644  10.124  1.00  0.00     0.001 A 
HETATM   10  C   LIG     1      12.929  24.036  10.102  1.00  0.00     0.000 A 
HETATM   11  C   LIG     1      11.914  24.500  10.941  1.00  0.00     0.001 A 
HETATM   12  C   LIG     1      12.154  25.573  11.805  1.00  0.00     0.012 A 
ENDBRANCH   1   7
BRANCH   4  13
HETATM   13  C   LIG     1      14.426  30.642  15.419  1.00  0.00    -0.026 A 
HETATM   14  C   LIG     1      15.465  31.553  15.154  1.00  0.00     0.012 A 
HETATM   15  C   LIG     1      15.706  32.625  16.019  1.00  0.00     0.001 A 
HETATM   16  C   LIG     1      14.913  32.800  17.155  1.00  0.00     0.000 A 
HETATM   17  C   LIG     1      13.878  31.903  17.429  1.00  0.00     0.001 A 
HETATM   18  C   LIG     1      13.633  30.829  16.568  1.00  0.00     0.012 A 
ENDBRANCH   4  13
TORSDOF 2
ENDMDL
MODEL 9
REMARK VINA RESULT:      -6.1     17.514     19.685
REMARK  2 active torsions:
REMARK  status: ('A' for Active; 'I' for Inactive)
REMARK    1  A    between atoms: C_1  and  C_2 
REMARK    2  A    between atoms: C_5  and  C_6 
ROOT
HETATM    1  C   LIG     1      27.454  29.591  34.571  1.00  0.00    -0.026 A 
HETATM    2  C   LIG     1      26.413  28.660  34.408  1.00  0.00     0.013 A 
HETATM    3  C   LIG     1      26.414  27.774  33.328  1.00  0.00     0.013 A 
HETATM    4  C   LIG     1      27.454  27.800  32.383  1.00  0.00    -0.026 A 
HETATM    5  C   LIG     1      28.495  28.732  32.545  1.00  0.00     0.013 A 
HETATM    6  C   LIG     1      28.495  29.616  33.627  1.00  0.00     0.013 A 
ENDROOT
BRANCH   1   7
HETATM    7  C   LIG     1      27.453  30.532  35.720  1.00  0.00    -0.026 A 
HETATM    8  C   LIG     1      26.247  30.884  36.356  1.00  0.00     0.012 A 
HETATM    9  C   LIG     1      26.248  31.771  37.437  1.00  0.00     0.001 A 
HETATM   10  C   LIG     1      27.450  32.315  37.896  1.00  0.00     0.000 A 
HETATM   11  C   LIG     1      28.653  31.975  37.273  1.00  0.00     0.001 A 
HETATM   12  C   LIG     1      28.657  31.089  36.191  1.00  0.00     0.012 A 
ENDBRANCH   1   7
BRANCH   4  13
HETATM   13  C   LIG     1      27.455  26.858  31.234  1.00  0.00    -0.026 A 
HETATM   14  C   LIG     1      27.651  25.480  31.437  1.00  0.00     0.012 A 
HETATM   15  C   LIG     1      27.652  24.596  30.354  1.00  0.00     0.001 A 
HETATM   16  C   LIG     1      27.456  25.076  29.058  1.00  0.00     0.000 A 
HETATM   17  C   LIG     1      27.261  26.443  28.842  1.00  0.00     0.001 A 
HETATM   18  C   LIG     1      27.260  27.331  29.921  1.00  0.00     0.012 A 
ENDBRANCH   4  13
TORSDOF 2
ENDMDL
