REMARK  2 active torsions:
REMARK  status: ('A' for Active; 'I' for Inactive)
REMARK    1  A    between atoms: C_1  and  C_2 
REMARK    2  A    between atoms: C_5  and  C_6 
ROOT
HETATM    1  C   LIG     1      -1.412  -0.053   0.145  1.00  0.00    -0.026 A 
HETATM    2  C   LIG     1      -0.723   0.016  -1.078  1.00  0.00     0.013 A 
HETATM    3  C   LIG     1       0.673   0.067  -1.106  1.00  0.00     0.013 A 
HETATM    4  C   LIG     1       1.412   0.053   0.089  1.00  0.00    -0.026 A 
HETATM    5  C   LIG     1       0.723  -0.015   1.313  1.00  0.00     0.013 A 
HETATM    6  C   LIG     1      -0.673  -0.068   1.340  1.00  0.00     0.013 A 
ENDROOT
BRANCH   1   7
HETATM    7  C   LIG     1      -2.897  -0.108   0.174  1.00  0.00    -0.026 A 
HETATM    8  C   LIG     1      -3.564  -0.954   1.080  1.00  0.00     0.012 A 
HETATM    9  C   LIG     1      -4.961  -1.005   1.105  1.00  0.00     0.001 A 
HETATM   10  C   LIG     1      -5.707  -0.213   0.229  1.00  0.00     0.000 A 
HETATM   11  C   LIG     1      -5.057   0.630  -0.675  1.00  0.00     0.001 A 
HETATM   12  C   LIG     1      -3.660   0.684  -0.705  1.00  0.00     0.012 A 
ENDBRANCH   1   7
BRANCH   4  13
HETATM   13  C   LIG     1       2.897   0.108   0.060  1.00  0.00    -0.026 A 
HETATM   14  C   LIG     1       3.622  -0.621  -0.901  1.00  0.00     0.012 A 
HETATM   15  C   LIG     1       5.019  -0.568  -0.926  1.00  0.00     0.001 A 
HETATM   16  C   LIG     1       5.707   0.213   0.005  1.00  0.00     0.000 A 
HETATM   17  C   LIG     1       4.999   0.942   0.964  1.00  0.00     0.001 A 
HETATM   18  C   LIG     1       3.602   0.892   0.994  1.00  0.00     0.012 A 
ENDBRANCH   4  13
TORSDOF 2
