REMARK  0 active torsions:
REMARK  status: ('A' for Active; 'I' for Inactive)
ROOT
HETATM    1  C   LIG     1      -3.715  -0.891  -0.109  1.00  0.00     0.048 C 
HETATM    2  C   LIG     1      -2.372  -0.239   0.042  1.00  0.00    -0.060 A 
HETATM    3  C   LIG     1      -2.294   1.102   0.451  1.00  0.00     0.007 A 
HETATM    4  C   LIG     1      -1.051   1.726   0.598  1.00  0.00     0.014 A 
HETATM    5  C   LIG     1      -1.192  -0.955  -0.221  1.00  0.00     0.039 A 
HETATM    6  C   LIG     1       0.054  -0.335  -0.076  1.00  0.00     0.068 A 
HETATM    7  C   LIG     1       0.127   1.014   0.336  1.00  0.00    -0.007 A 
HETATM    8  C   LIG     1       1.385   1.613   0.474  1.00  0.00     0.016 A 
HETATM    9  C   LIG     1       2.539   0.875   0.205  1.00  0.00     0.027 A 
HETATM   10  C   LIG     1       2.427  -0.462  -0.202  1.00  0.00     0.031 A 
HETATM   11  C   LIG     1       3.652  -1.268  -0.494  1.00  0.00     0.070 C 
HETATM   12  N   LIG     1       1.196  -1.029  -0.331  1.00  0.00    -0.253 NA
ENDROOT
TORSDOF 0
