MODEL 1
REMARK VINA RESULT:      -7.6      0.000      0.000
REMARK  0 active torsions:
REMARK  status: ('A' for Active; 'I' for Inactive)
ROOT
HETATM    1  C   LIG     1      20.555  38.926  19.286  1.00  0.00     0.048 C 
HETATM    2  C   LIG     1      19.408  38.373  20.079  1.00  0.00    -0.060 A 
HETATM    3  C   LIG     1      18.930  39.079  21.194  1.00  0.00     0.007 A 
HETATM    4  C   LIG     1      17.861  38.579  21.944  1.00  0.00     0.014 A 
HETATM    5  C   LIG     1      18.805  37.156  19.717  1.00  0.00     0.039 A 
HETATM    6  C   LIG     1      17.736  36.651  20.464  1.00  0.00     0.068 A 
HETATM    7  C   LIG     1      17.259  37.365  21.586  1.00  0.00    -0.007 A 
HETATM    8  C   LIG     1      16.188  36.840  22.318  1.00  0.00     0.016 A 
HETATM    9  C   LIG     1      15.611  35.628  21.934  1.00  0.00     0.027 A 
HETATM   10  C   LIG     1      16.111  34.947  20.815  1.00  0.00     0.031 A 
HETATM   11  C   LIG     1      15.506  33.649  20.388  1.00  0.00     0.070 C 
HETATM   12  N   LIG     1      17.153  35.472  20.114  1.00  0.00    -0.253 NA
ENDROOT
TORSDOF 0
ENDMDL
MODEL 2
REMARK VINA RESULT:      -7.1      1.006      4.358
REMARK  0 active torsions:
REMARK  status: ('A' for Active; 'I' for Inactive)
ROOT
HETATM    1  C   LIG     1      15.063  34.225  21.250  1.00  0.00     0.048 C 
HETATM    2  C   LIG     1      15.821  35.508  21.432  1.00  0.00    -0.060 A 
HETATM    3  C   LIG     1      15.401  36.429  22.406  1.00  0.00     0.007 A 
HETATM    4  C   LIG     1      16.096  37.629  22.590  1.00  0.00     0.014 A 
HETATM    5  C   LIG     1      16.945  35.797  20.641  1.00  0.00     0.039 A 
HETATM    6  C   LIG     1      17.642  36.996  20.821  1.00  0.00     0.068 A 
HETATM    7  C   LIG     1      17.217  37.919  21.802  1.00  0.00    -0.007 A 
HETATM    8  C   LIG     1      17.931  39.113  21.964  1.00  0.00     0.016 A 
HETATM    9  C   LIG     1      19.043  39.371  21.161  1.00  0.00     0.027 A 
HETATM   10  C   LIG     1      19.436  38.431  20.198  1.00  0.00     0.031 A 
HETATM   11  C   LIG     1      20.625  38.690  19.330  1.00  0.00     0.070 C 
HETATM   12  N   LIG     1      18.731  37.276  20.054  1.00  0.00    -0.253 NA
ENDROOT
TORSDOF 0
ENDMDL
MODEL 3
REMARK VINA RESULT:      -7.0      1.880      3.177
REMARK  0 active torsions:
REMARK  status: ('A' for Active; 'I' for Inactive)
ROOT
HETATM    1  C   LIG     1      20.026  39.307  18.632  1.00  0.00     0.048 C 
HETATM    2  C   LIG     1      19.230  38.480  19.599  1.00  0.00    -0.060 A 
HETATM    3  C   LIG     1      18.681  37.258  19.179  1.00  0.00     0.007 A 
HETATM    4  C   LIG     1      17.937  36.474  20.067  1.00  0.00     0.014 A 
HETATM    5  C   LIG     1      19.028  38.915  20.920  1.00  0.00     0.039 A 
HETATM    6  C   LIG     1      18.283  38.135  21.811  1.00  0.00     0.068 A 
HETATM    7  C   LIG     1      17.734  36.906  21.384  1.00  0.00    -0.007 A 
HETATM    8  C   LIG     1      16.993  36.142  22.294  1.00  0.00     0.016 A 
HETATM    9  C   LIG     1      16.809  36.602  23.599  1.00  0.00     0.027 A 
HETATM   10  C   LIG     1      17.370  37.827  23.987  1.00  0.00     0.031 A 
HETATM   11  C   LIG     1      17.184  38.335  25.381  1.00  0.00     0.070 C 
HETATM   12  N   LIG     1      18.088  38.557  23.090  1.00  0.00    -0.253 NA
ENDROOT
TORSDOF 0
ENDMDL
MODEL 4
REMARK VINA RESULT:      -6.7      1.840      4.369
REMARK  0 active torsions:
REMARK  status: ('A' for Active; 'I' for Inactive)
ROOT
HETATM    1  C   LIG     1      17.184  38.260  25.380  1.00  0.00     0.048 C 
HETATM    2  C   LIG     1      17.383  37.766  23.977  1.00  0.00    -0.060 A 
HETATM    3  C   LIG     1      16.899  36.500  23.612  1.00  0.00     0.007 A 
HETATM    4  C   LIG     1      17.074  36.023  22.309  1.00  0.00     0.014 A 
HETATM    5  C   LIG     1      18.047  38.557  23.024  1.00  0.00     0.039 A 
HETATM    6  C   LIG     1      18.226  38.084  21.719  1.00  0.00     0.068 A 
HETATM    7  C   LIG     1      17.737  36.810  21.357  1.00  0.00    -0.007 A 
HETATM    8  C   LIG     1      17.927  36.358  20.045  1.00  0.00     0.016 A 
HETATM    9  C   LIG     1      18.591  37.167  19.122  1.00  0.00     0.027 A 
HETATM   10  C   LIG     1      19.063  38.427  19.518  1.00  0.00     0.031 A 
HETATM   11  C   LIG     1      19.776  39.307  18.542  1.00  0.00     0.070 C 
HETATM   12  N   LIG     1      18.869  38.851  20.797  1.00  0.00    -0.253 NA
ENDROOT
TORSDOF 0
ENDMDL
MODEL 5
REMARK VINA RESULT:      -6.7      2.682      4.609
REMARK  0 active torsions:
REMARK  status: ('A' for Active; 'I' for Inactive)
ROOT
HETATM    1  C   LIG     1      15.818  33.917  20.453  1.00  0.00     0.048 C 
HETATM    2  C   LIG     1      16.342  35.018  21.329  1.00  0.00    -0.060 A 
HETATM    3  C   LIG     1      16.523  36.303  20.793  1.00  0.00     0.007 A 
HETATM    4  C   LIG     1      17.009  37.341  21.594  1.00  0.00     0.014 A 
HETATM    5  C   LIG     1      16.652  34.777  22.677  1.00  0.00     0.039 A 
HETATM    6  C   LIG     1      17.140  35.812  23.483  1.00  0.00     0.068 A 
HETATM    7  C   LIG     1      17.320  37.103  22.939  1.00  0.00    -0.007 A 
HETATM    8  C   LIG     1      17.809  38.124  23.764  1.00  0.00     0.016 A 
HETATM    9  C   LIG     1      18.108  37.853  25.101  1.00  0.00     0.027 A 
HETATM   10  C   LIG     1      17.916  36.558  25.605  1.00  0.00     0.031 A 
HETATM   11  C   LIG     1      18.231  36.250  27.033  1.00  0.00     0.070 C 
HETATM   12  N   LIG     1      17.440  35.578  24.789  1.00  0.00    -0.253 NA
ENDROOT
TORSDOF 0
ENDMDL
MODEL 6
REMARK VINA RESULT:      -6.3      2.338      3.162
REMARK  0 active torsions:
REMARK  status: ('A' for Active; 'I' for Inactive)
ROOT
HETATM    1  C   LIG     1      18.308  37.059  19.031  1.00  0.00     0.048 C 
HETATM    2  C   LIG     1      18.122  37.381  20.485  1.00  0.00    -0.060 A 
HETATM    3  C   LIG     1      18.211  38.714  20.918  1.00  0.00     0.007 A 
HETATM    4  C   LIG     1      18.040  39.032  22.269  1.00  0.00     0.014 A 
HETATM    5  C   LIG     1      17.859  36.364  21.418  1.00  0.00     0.039 A 
HETATM    6  C   LIG     1      17.687  36.677  22.771  1.00  0.00     0.068 A 
HETATM    7  C   LIG     1      17.778  38.020  23.201  1.00  0.00    -0.007 A 
HETATM    8  C   LIG     1      17.602  38.309  24.560  1.00  0.00     0.016 A 
HETATM    9  C   LIG     1      17.342  37.276  25.462  1.00  0.00     0.027 A 
HETATM   10  C   LIG     1      17.260  35.955  24.998  1.00  0.00     0.031 A 
HETATM   11  C   LIG     1      16.982  34.836  25.950  1.00  0.00     0.070 C 
HETATM   12  N   LIG     1      17.433  35.692  23.674  1.00  0.00    -0.253 NA
ENDROOT
TORSDOF 0
ENDMDL
MODEL 7
REMARK VINA RESULT:      -6.2      5.605      7.685
REMARK  0 active torsions:
REMARK  status: ('A' for Active; 'I' for Inactive)
ROOT
HETATM    1  C   LIG     1      17.799  33.316  12.875  1.00  0.00     0.048 C 
HETATM    2  C   LIG     1      16.815  32.695  13.822  1.00  0.00    -0.060 A 
HETATM    3  C   LIG     1      15.908  31.733  13.347  1.00  0.00     0.007 A 
HETATM    4  C   LIG     1      14.984  31.143  14.215  1.00  0.00     0.014 A 
HETATM    5  C   LIG     1      16.789  33.065  15.177  1.00  0.00     0.039 A 
HETATM    6  C   LIG     1      15.866  32.478  16.049  1.00  0.00     0.068 A 
HETATM    7  C   LIG     1      14.956  31.510  15.567  1.00  0.00    -0.007 A 
HETATM    8  C   LIG     1      14.042  30.937  16.458  1.00  0.00     0.016 A 
HETATM    9  C   LIG     1      14.041  31.326  17.799  1.00  0.00     0.027 A 
HETATM   10  C   LIG     1      14.959  32.289  18.241  1.00  0.00     0.031 A 
HETATM   11  C   LIG     1      14.973  32.717  19.673  1.00  0.00     0.070 C 
HETATM   12  N   LIG     1      15.842  32.836  17.361  1.00  0.00    -0.253 NA
ENDROOT
TORSDOF 0
ENDMDL
MODEL 8
REMARK VINA RESULT:      -6.2      2.845      4.928
REMARK  0 active torsions:
REMARK  status: ('A' for Active; 'I' for Inactive)
ROOT
HETATM    1  C   LIG     1      18.075  36.297  27.207  1.00  0.00     0.048 C 
HETATM    2  C   LIG     1      17.840  36.259  25.726  1.00  0.00    -0.060 A 
HETATM    3  C   LIG     1      17.283  35.111  25.141  1.00  0.00     0.007 A 
HETATM    4  C   LIG     1      17.056  35.058  23.762  1.00  0.00     0.014 A 
HETATM    5  C   LIG     1      18.170  37.360  24.917  1.00  0.00     0.039 A 
HETATM    6  C   LIG     1      17.945  37.312  23.537  1.00  0.00     0.068 A 
HETATM    7  C   LIG     1      17.385  36.154  22.954  1.00  0.00    -0.007 A 
HETATM    8  C   LIG     1      17.169  36.129  21.571  1.00  0.00     0.016 A 
HETATM    9  C   LIG     1      17.508  37.239  20.795  1.00  0.00     0.027 A 
HETATM   10  C   LIG     1      18.062  38.371  21.409  1.00  0.00     0.031 A 
HETATM   11  C   LIG     1      18.431  39.569  20.594  1.00  0.00     0.070 C 
HETATM   12  N   LIG     1      18.265  38.378  22.755  1.00  0.00    -0.253 NA
ENDROOT
TORSDOF 0
ENDMDL
MODEL 9
REMARK VINA RESULT:      -6.0      0.992      4.382
REMARK  0 active torsions:
REMARK  status: ('A' for Active; 'I' for Inactive)
ROOT
HETATM    1  C   LIG     1      15.337  33.153  20.047  1.00  0.00     0.048 C 
HETATM    2  C   LIG     1      15.747  34.474  20.628  1.00  0.00    -0.060 A 
HETATM    3  C   LIG     1      15.014  35.020  21.694  1.00  0.00     0.007 A 
HETATM    4  C   LIG     1      15.382  36.250  22.249  1.00  0.00     0.014 A 
HETATM    5  C   LIG     1      16.855  35.171  20.117  1.00  0.00     0.039 A 
HETATM    6  C   LIG     1      17.226  36.402  20.668  1.00  0.00     0.068 A 
HETATM    7  C   LIG     1      16.486  36.947  21.741  1.00  0.00    -0.007 A 
HETATM    8  C   LIG     1      16.877  38.181  22.276  1.00  0.00     0.016 A 
HETATM    9  C   LIG     1      17.983  38.849  21.746  1.00  0.00     0.027 A 
HETATM   10  C   LIG     1      18.692  38.276  20.681  1.00  0.00     0.031 A 
HETATM   11  C   LIG     1      19.879  38.977  20.101  1.00  0.00     0.070 C 
HETATM   12  N   LIG     1      18.299  37.076  20.173  1.00  0.00    -0.253 NA
ENDROOT
TORSDOF 0
ENDMDL
MODEL 10
REMARK VINA RESULT:      -5.6      7.684     10.366
REMARK  0 active torsions:
REMARK  status: ('A' for Active; 'I' for Inactive)
ROOT
HETATM    1  C   LIG     1      15.566  33.059  16.215  1.00  0.00     0.048 C 
HETATM    2  C   LIG     1      14.943  31.802  15.682  1.00  0.00    -0.060 A 
HETATM    3  C   LIG     1      13.630  31.469  16.049  1.00  0.00     0.007 A 
HETATM    4  C   LIG     1      13.032  30.302  15.561  1.00  0.00     0.014 A 
HETATM    5  C   LIG     1      15.659  30.956  14.818  1.00  0.00     0.039 A 
HETATM    6  C   LIG     1      15.066  29.788  14.327  1.00  0.00     0.068 A 
HETATM    7  C   LIG     1      13.745  29.457  14.700  1.00  0.00    -0.007 A 
HETATM    8  C   LIG     1      13.172  28.283  14.196  1.00  0.00     0.016 A 
HETATM    9  C   LIG     1      13.910  27.462  13.340  1.00  0.00     0.027 A 
HETATM   10  C   LIG     1      15.219  27.823  12.992  1.00  0.00     0.031 A 
HETATM   11  C   LIG     1      16.024  26.958  12.077  1.00  0.00     0.070 C 
HETATM   12  N   LIG     1      15.760  28.969  13.491  1.00  0.00    -0.253 NA
ENDROOT
TORSDOF 0
ENDMDL
MODEL 11
REMARK VINA RESULT:      -5.6      6.009      8.306
REMARK  0 active torsions:
REMARK  status: ('A' for Active; 'I' for Inactive)
ROOT
HETATM    1  C   LIG     1      14.563  32.182  19.705  1.00  0.00     0.048 C 
HETATM    2  C   LIG     1      14.729  31.965  18.230  1.00  0.00    -0.060 A 
HETATM    3  C   LIG     1      13.884  31.064  17.562  1.00  0.00     0.007 A 
HETATM    4  C   LIG     1      14.023  30.850  16.187  1.00  0.00     0.014 A 
HETATM    5  C   LIG     1      15.718  32.654  17.509  1.00  0.00     0.039 A 
HETATM    6  C   LIG     1      15.862  32.443  16.133  1.00  0.00     0.068 A 
HETATM    7  C   LIG     1      15.009  31.535  15.466  1.00  0.00    -0.007 A 
HETATM    8  C   LIG     1      15.172  31.340  14.089  1.00  0.00     0.016 A 
HETATM    9  C   LIG     1      16.165  32.040  13.401  1.00  0.00     0.027 A 
HETATM   10  C   LIG     1      16.992  32.933  14.097  1.00  0.00     0.031 A 
HETATM   11  C   LIG     1      18.060  33.691  13.376  1.00  0.00     0.070 C 
HETATM   12  N   LIG     1      16.820  33.110  15.436  1.00  0.00    -0.253 NA
ENDROOT
TORSDOF 0
ENDMDL
MODEL 12
REMARK VINA RESULT:      -5.6      6.680      9.877
REMARK  0 active torsions:
REMARK  status: ('A' for Active; 'I' for Inactive)
ROOT
HETATM    1  C   LIG     1      15.689  27.771  12.853  1.00  0.00     0.048 C 
HETATM    2  C   LIG     1      14.895  28.679  13.745  1.00  0.00    -0.060 A 
HETATM    3  C   LIG     1      13.554  28.374  14.029  1.00  0.00     0.007 A 
HETATM    4  C   LIG     1      12.798  29.208  14.859  1.00  0.00     0.014 A 
HETATM    5  C   LIG     1      15.477  29.831  14.300  1.00  0.00     0.039 A 
HETATM    6  C   LIG     1      14.725  30.669  15.131  1.00  0.00     0.068 A 
HETATM    7  C   LIG     1      13.376  30.357  15.413  1.00  0.00    -0.007 A 
HETATM    8  C   LIG     1      12.644  31.211  16.246  1.00  0.00     0.016 A 
HETATM    9  C   LIG     1      13.251  32.348  16.782  1.00  0.00     0.027 A 
HETATM   10  C   LIG     1      14.591  32.626  16.479  1.00  0.00     0.031 A 
HETATM   11  C   LIG     1      15.258  33.839  17.044  1.00  0.00     0.070 C 
HETATM   12  N   LIG     1      15.289  31.785  15.667  1.00  0.00    -0.253 NA
ENDROOT
TORSDOF 0
ENDMDL
MODEL 13
REMARK VINA RESULT:      -5.3      1.796      3.512
REMARK  0 active torsions:
REMARK  status: ('A' for Active; 'I' for Inactive)
ROOT
HETATM    1  C   LIG     1      17.819  37.941  21.709  1.00  0.00     0.048 C 
HETATM    2  C   LIG     1      17.153  36.642  21.362  1.00  0.00    -0.060 A 
HETATM    3  C   LIG     1      16.860  35.720  22.380  1.00  0.00     0.007 A 
HETATM    4  C   LIG     1      16.238  34.504  22.075  1.00  0.00     0.014 A 
HETATM    5  C   LIG     1      16.820  36.337  20.031  1.00  0.00     0.039 A 
HETATM    6  C   LIG     1      16.199  35.122  19.722  1.00  0.00     0.068 A 
HETATM    7  C   LIG     1      15.906  34.199  20.749  1.00  0.00    -0.007 A 
HETATM    8  C   LIG     1      15.284  32.989  20.415  1.00  0.00     0.016 A 
HETATM    9  C   LIG     1      14.966  32.716  19.084  1.00  0.00     0.027 A 
HETATM   10  C   LIG     1      15.273  33.658  18.091  1.00  0.00     0.031 A 
HETATM   11  C   LIG     1      14.939  33.383  16.660  1.00  0.00     0.070 C 
HETATM   12  N   LIG     1      15.877  34.829  18.433  1.00  0.00    -0.253 NA
ENDROOT
TORSDOF 0
ENDMDL
MODEL 14
REMARK VINA RESULT:      -5.2      8.170     10.926
REMARK  0 active torsions:
REMARK  status: ('A' for Active; 'I' for Inactive)
ROOT
HETATM    1  C   LIG     1      13.329  32.396  16.767  1.00  0.00     0.048 C 
HETATM    2  C   LIG     1      13.826  31.303  15.867  1.00  0.00    -0.060 A 
HETATM    3  C   LIG     1      15.175  31.284  15.478  1.00  0.00     0.007 A 
HETATM    4  C   LIG     1      15.655  30.273  14.640  1.00  0.00     0.014 A 
HETATM    5  C   LIG     1      12.956  30.299  15.409  1.00  0.00     0.039 A 
HETATM    6  C   LIG     1      13.432  29.286  14.570  1.00  0.00     0.068 A 
HETATM    7  C   LIG     1      14.790  29.271  14.182  1.00  0.00    -0.007 A 
HETATM    8  C   LIG     1      15.243  28.246  13.341  1.00  0.00     0.016 A 
HETATM    9  C   LIG     1      14.354  27.263  12.903  1.00  0.00     0.027 A 
HETATM   10  C   LIG     1      13.013  27.311  13.309  1.00  0.00     0.031 A 
HETATM   11  C   LIG     1      12.047  26.267  12.850  1.00  0.00     0.070 C 
HETATM   12  N   LIG     1      12.589  28.314  14.126  1.00  0.00    -0.253 NA
ENDROOT
TORSDOF 0
ENDMDL
MODEL 15
REMARK VINA RESULT:      -4.7      1.793      5.194
REMARK  0 active torsions:
REMARK  status: ('A' for Active; 'I' for Inactive)
ROOT
HETATM    1  C   LIG     1      14.525  32.630  16.716  1.00  0.00     0.048 C 
HETATM    2  C   LIG     1      14.962  33.077  18.079  1.00  0.00    -0.060 A 
HETATM    3  C   LIG     1      14.699  32.264  19.194  1.00  0.00     0.007 A 
HETATM    4  C   LIG     1      15.100  32.664  20.472  1.00  0.00     0.014 A 
HETATM    5  C   LIG     1      15.632  34.300  18.254  1.00  0.00     0.039 A 
HETATM    6  C   LIG     1      16.034  34.705  19.532  1.00  0.00     0.068 A 
HETATM    7  C   LIG     1      15.767  33.884  20.649  1.00  0.00    -0.007 A 
HETATM    8  C   LIG     1      16.179  34.310  21.917  1.00  0.00     0.016 A 
HETATM    9  C   LIG     1      16.843  35.531  22.058  1.00  0.00     0.027 A 
HETATM   10  C   LIG     1      17.090  36.319  20.926  1.00  0.00     0.031 A 
HETATM   11  C   LIG     1      17.799  37.629  21.057  1.00  0.00     0.070 C 
HETATM   12  N   LIG     1      16.682  35.889  19.700  1.00  0.00    -0.253 NA
ENDROOT
TORSDOF 0
ENDMDL
