MODEL 1
REMARK VINA RESULT:      -7.1      0.000      0.000
REMARK  2 active torsions:
REMARK  status: ('A' for Active; 'I' for Inactive)
REMARK    1  A    between atoms: C_2  and  C_9 
REMARK    2  A    between atoms: C_2  and  C_3 
ROOT
HETATM    1  C   LIG     1      17.226  36.878  24.335  1.00  0.00     0.010 A 
HETATM    2  C   LIG     1      17.937  37.543  25.357  1.00  0.00     0.015 A 
HETATM    3  C   LIG     1      18.471  36.827  26.433  1.00  0.00     0.001 A 
HETATM    4  C   LIG     1      18.305  35.442  26.506  1.00  0.00     0.000 A 
HETATM    5  C   LIG     1      17.607  34.771  25.503  1.00  0.00     0.001 A 
HETATM    6  C   LIG     1      17.071  35.481  24.424  1.00  0.00     0.015 A 
ENDROOT
BRANCH   1   7
HETATM    7  C   LIG     1      16.647  37.614  23.175  1.00  0.00     0.159 C 
HETATM    8  O   LIG     1      15.481  38.088  23.263  1.00  0.00    -0.292 OA
BRANCH   7   9
HETATM    9  C   LIG     1      17.383  37.795  21.874  1.00  0.00     0.079 C 
HETATM   10  C   LIG     1      18.276  39.031  21.920  1.00  0.00     0.013 C 
ENDBRANCH   7   9
ENDBRANCH   1   7
TORSDOF 2
ENDMDL
MODEL 2
REMARK VINA RESULT:      -6.8      0.962      2.055
REMARK  2 active torsions:
REMARK  status: ('A' for Active; 'I' for Inactive)
REMARK    1  A    between atoms: C_2  and  C_9 
REMARK    2  A    between atoms: C_2  and  C_3 
ROOT
HETATM    1  C   LIG     1      17.201  36.654  24.371  1.00  0.00     0.010 A 
HETATM    2  C   LIG     1      17.165  35.277  24.676  1.00  0.00     0.015 A 
HETATM    3  C   LIG     1      17.802  34.785  25.819  1.00  0.00     0.001 A 
HETATM    4  C   LIG     1      18.483  35.655  26.673  1.00  0.00     0.000 A 
HETATM    5  C   LIG     1      18.526  37.019  26.386  1.00  0.00     0.001 A 
HETATM    6  C   LIG     1      17.890  37.518  25.245  1.00  0.00     0.015 A 
ENDROOT
BRANCH   1   7
HETATM    7  C   LIG     1      16.529  37.209  23.161  1.00  0.00     0.159 C 
HETATM    8  O   LIG     1      15.624  38.077  23.300  1.00  0.00    -0.292 OA
BRANCH   7   9
HETATM    9  C   LIG     1      16.859  36.755  21.764  1.00  0.00     0.079 C 
HETATM   10  C   LIG     1      15.807  35.779  21.245  1.00  0.00     0.013 C 
ENDBRANCH   7   9
ENDBRANCH   1   7
TORSDOF 2
ENDMDL
MODEL 3
REMARK VINA RESULT:      -6.6      1.347      4.595
REMARK  2 active torsions:
REMARK  status: ('A' for Active; 'I' for Inactive)
REMARK    1  A    between atoms: C_2  and  C_9 
REMARK    2  A    between atoms: C_2  and  C_3 
ROOT
HETATM    1  C   LIG     1      17.557  38.006  22.063  1.00  0.00     0.010 A 
HETATM    2  C   LIG     1      17.593  36.849  21.256  1.00  0.00     0.015 A 
HETATM    3  C   LIG     1      18.354  36.824  20.083  1.00  0.00     0.001 A 
HETATM    4  C   LIG     1      19.089  37.947  19.698  1.00  0.00     0.000 A 
HETATM    5  C   LIG     1      19.065  39.097  20.487  1.00  0.00     0.001 A 
HETATM    6  C   LIG     1      18.306  39.129  21.661  1.00  0.00     0.015 A 
ENDROOT
BRANCH   1   7
HETATM    7  C   LIG     1      16.757  38.062  23.320  1.00  0.00     0.159 C 
HETATM    8  O   LIG     1      15.497  38.053  23.251  1.00  0.00    -0.292 OA
BRANCH   7   9
HETATM    9  C   LIG     1      17.386  38.163  24.684  1.00  0.00     0.079 C 
HETATM   10  C   LIG     1      17.596  36.778  25.290  1.00  0.00     0.013 C 
ENDBRANCH   7   9
ENDBRANCH   1   7
TORSDOF 2
ENDMDL
MODEL 4
REMARK VINA RESULT:      -6.5      1.829      4.728
REMARK  2 active torsions:
REMARK  status: ('A' for Active; 'I' for Inactive)
REMARK    1  A    between atoms: C_2  and  C_9 
REMARK    2  A    between atoms: C_2  and  C_3 
ROOT
HETATM    1  C   LIG     1      17.709  37.424  21.359  1.00  0.00     0.010 A 
HETATM    2  C   LIG     1      18.056  38.785  21.497  1.00  0.00     0.015 A 
HETATM    3  C   LIG     1      18.942  39.387  20.598  1.00  0.00     0.001 A 
HETATM    4  C   LIG     1      19.493  38.645  19.552  1.00  0.00     0.000 A 
HETATM    5  C   LIG     1      19.158  37.300  19.401  1.00  0.00     0.001 A 
HETATM    6  C   LIG     1      18.272  36.691  20.296  1.00  0.00     0.015 A 
ENDROOT
BRANCH   1   7
HETATM    7  C   LIG     1      16.766  36.755  22.300  1.00  0.00     0.159 C 
HETATM    8  O   LIG     1      15.856  37.434  22.850  1.00  0.00    -0.292 OA
BRANCH   7   9
HETATM    9  C   LIG     1      16.866  35.295  22.655  1.00  0.00     0.079 C 
HETATM   10  C   LIG     1      17.166  35.115  24.140  1.00  0.00     0.013 C 
ENDBRANCH   7   9
ENDBRANCH   1   7
TORSDOF 2
ENDMDL
MODEL 5
REMARK VINA RESULT:      -6.2      3.599      5.260
REMARK  2 active torsions:
REMARK  status: ('A' for Active; 'I' for Inactive)
REMARK    1  A    between atoms: C_2  and  C_9 
REMARK    2  A    between atoms: C_2  and  C_3 
ROOT
HETATM    1  C   LIG     1      17.842  36.883  20.479  1.00  0.00     0.010 A 
HETATM    2  C   LIG     1      18.865  37.024  19.516  1.00  0.00     0.015 A 
HETATM    3  C   LIG     1      19.726  38.125  19.550  1.00  0.00     0.001 A 
HETATM    4  C   LIG     1      19.582  39.099  20.540  1.00  0.00     0.000 A 
HETATM    5  C   LIG     1      18.578  38.973  21.499  1.00  0.00     0.001 A 
HETATM    6  C   LIG     1      17.713  37.874  21.472  1.00  0.00     0.015 A 
ENDROOT
BRANCH   1   7
HETATM    7  C   LIG     1      16.911  35.720  20.470  1.00  0.00     0.159 C 
HETATM    8  O   LIG     1      16.462  35.295  19.369  1.00  0.00    -0.292 OA
BRANCH   7   9
HETATM    9  C   LIG     1      16.448  35.035  21.728  1.00  0.00     0.079 C 
HETATM   10  C   LIG     1      15.092  34.366  21.518  1.00  0.00     0.013 C 
ENDBRANCH   7   9
ENDBRANCH   1   7
TORSDOF 2
ENDMDL
MODEL 6
REMARK VINA RESULT:      -6.2      3.710      5.295
REMARK  2 active torsions:
REMARK  status: ('A' for Active; 'I' for Inactive)
REMARK    1  A    between atoms: C_2  and  C_9 
REMARK    2  A    between atoms: C_2  and  C_3 
ROOT
HETATM    1  C   LIG     1      18.687  38.265  19.933  1.00  0.00     0.010 A 
HETATM    2  C   LIG     1      18.392  36.886  19.860  1.00  0.00     0.015 A 
HETATM    3  C   LIG     1      17.650  36.264  20.868  1.00  0.00     0.001 A 
HETATM    4  C   LIG     1      17.191  37.002  21.961  1.00  0.00     0.000 A 
HETATM    5  C   LIG     1      17.472  38.366  22.046  1.00  0.00     0.001 A 
HETATM    6  C   LIG     1      18.213  38.995  21.041  1.00  0.00     0.015 A 
ENDROOT
BRANCH   1   7
HETATM    7  C   LIG     1      19.473  38.957  18.873  1.00  0.00     0.159 C 
HETATM    8  O   LIG     1      20.582  39.482  19.170  1.00  0.00    -0.292 OA
BRANCH   7   9
HETATM    9  C   LIG     1      18.991  39.090  17.454  1.00  0.00     0.079 C 
HETATM   10  C   LIG     1      18.068  40.295  17.302  1.00  0.00     0.013 C 
ENDBRANCH   7   9
ENDBRANCH   1   7
TORSDOF 2
ENDMDL
MODEL 7
REMARK VINA RESULT:      -6.0      1.666      3.955
REMARK  2 active torsions:
REMARK  status: ('A' for Active; 'I' for Inactive)
REMARK    1  A    between atoms: C_2  and  C_9 
REMARK    2  A    between atoms: C_2  and  C_3 
ROOT
HETATM    1  C   LIG     1      16.812  36.911  23.848  1.00  0.00     0.010 A 
HETATM    2  C   LIG     1      17.181  35.611  23.439  1.00  0.00     0.015 A 
HETATM    3  C   LIG     1      16.608  35.035  22.302  1.00  0.00     0.001 A 
HETATM    4  C   LIG     1      15.662  35.742  21.557  1.00  0.00     0.000 A 
HETATM    5  C   LIG     1      15.289  37.028  21.947  1.00  0.00     0.001 A 
HETATM    6  C   LIG     1      15.858  37.611  23.083  1.00  0.00     0.015 A 
ENDROOT
BRANCH   1   7
HETATM    7  C   LIG     1      17.407  37.553  25.055  1.00  0.00     0.159 C 
HETATM    8  O   LIG     1      16.883  38.603  25.518  1.00  0.00    -0.292 OA
BRANCH   7   9
HETATM    9  C   LIG     1      18.638  37.020  25.740  1.00  0.00     0.079 C 
HETATM   10  C   LIG     1      18.263  36.058  26.863  1.00  0.00     0.013 C 
ENDBRANCH   7   9
ENDBRANCH   1   7
TORSDOF 2
ENDMDL
MODEL 8
REMARK VINA RESULT:      -5.9      2.780      3.840
REMARK  2 active torsions:
REMARK  status: ('A' for Active; 'I' for Inactive)
REMARK    1  A    between atoms: C_2  and  C_9 
REMARK    2  A    between atoms: C_2  and  C_3 
ROOT
HETATM    1  C   LIG     1      17.873  37.207  20.825  1.00  0.00     0.010 A 
HETATM    2  C   LIG     1      17.822  38.224  21.802  1.00  0.00     0.015 A 
HETATM    3  C   LIG     1      17.312  37.961  23.076  1.00  0.00     0.001 A 
HETATM    4  C   LIG     1      16.846  36.685  23.397  1.00  0.00     0.000 A 
HETATM    5  C   LIG     1      16.891  35.668  22.443  1.00  0.00     0.001 A 
HETATM    6  C   LIG     1      17.401  35.924  21.166  1.00  0.00     0.015 A 
ENDROOT
BRANCH   1   7
HETATM    7  C   LIG     1      18.413  37.456  19.458  1.00  0.00     0.159 C 
HETATM    8  O   LIG     1      18.283  36.568  18.570  1.00  0.00    -0.292 OA
BRANCH   7   9
HETATM    9  C   LIG     1      19.145  38.718  19.087  1.00  0.00     0.079 C 
HETATM   10  C   LIG     1      20.624  38.617  19.447  1.00  0.00     0.013 C 
ENDBRANCH   7   9
ENDBRANCH   1   7
TORSDOF 2
ENDMDL
MODEL 9
REMARK VINA RESULT:      -5.8      2.543      3.835
REMARK  2 active torsions:
REMARK  status: ('A' for Active; 'I' for Inactive)
REMARK    1  A    between atoms: C_2  and  C_9 
REMARK    2  A    between atoms: C_2  and  C_3 
ROOT
HETATM    1  C   LIG     1      17.837  37.642  21.417  1.00  0.00     0.010 A 
HETATM    2  C   LIG     1      17.718  36.493  20.607  1.00  0.00     0.015 A 
HETATM    3  C   LIG     1      17.129  35.328  21.108  1.00  0.00     0.001 A 
HETATM    4  C   LIG     1      16.651  35.291  22.419  1.00  0.00     0.000 A 
HETATM    5  C   LIG     1      16.759  36.419  23.231  1.00  0.00     0.001 A 
HETATM    6  C   LIG     1      17.347  37.588  22.737  1.00  0.00     0.015 A 
ENDROOT
BRANCH   1   7
HETATM    7  C   LIG     1      18.458  38.899  20.911  1.00  0.00     0.159 C 
HETATM    8  O   LIG     1      18.561  39.893  21.682  1.00  0.00    -0.292 OA
BRANCH   7   9
HETATM    9  C   LIG     1      18.949  39.055  19.496  1.00  0.00     0.079 C 
HETATM   10  C   LIG     1      20.447  38.783  19.405  1.00  0.00     0.013 C 
ENDBRANCH   7   9
ENDBRANCH   1   7
TORSDOF 2
ENDMDL
MODEL 10
REMARK VINA RESULT:      -5.7      1.981      2.446
REMARK  2 active torsions:
REMARK  status: ('A' for Active; 'I' for Inactive)
REMARK    1  A    between atoms: C_2  and  C_9 
REMARK    2  A    between atoms: C_2  and  C_3 
ROOT
HETATM    1  C   LIG     1      16.835  36.020  23.523  1.00  0.00     0.010 A 
HETATM    2  C   LIG     1      16.812  37.398  23.826  1.00  0.00     0.015 A 
HETATM    3  C   LIG     1      17.293  37.865  25.053  1.00  0.00     0.001 A 
HETATM    4  C   LIG     1      17.804  36.968  25.993  1.00  0.00     0.000 A 
HETATM    5  C   LIG     1      17.835  35.603  25.708  1.00  0.00     0.001 A 
HETATM    6  C   LIG     1      17.356  35.130  24.482  1.00  0.00     0.015 A 
ENDROOT
BRANCH   1   7
HETATM    7  C   LIG     1      16.331  35.493  22.223  1.00  0.00     0.159 C 
HETATM    8  O   LIG     1      15.332  34.722  22.214  1.00  0.00    -0.292 OA
BRANCH   7   9
HETATM    9  C   LIG     1      16.983  35.815  20.904  1.00  0.00     0.079 C 
HETATM   10  C   LIG     1      16.166  35.256  19.742  1.00  0.00     0.013 C 
ENDBRANCH   7   9
ENDBRANCH   1   7
TORSDOF 2
ENDMDL
MODEL 11
REMARK VINA RESULT:      -5.7      8.649     10.224
REMARK  2 active torsions:
REMARK  status: ('A' for Active; 'I' for Inactive)
REMARK    1  A    between atoms: C_2  and  C_9 
REMARK    2  A    between atoms: C_2  and  C_3 
ROOT
HETATM    1  C   LIG     1      14.744  31.879  16.567  1.00  0.00     0.010 A 
HETATM    2  C   LIG     1      13.593  31.065  16.511  1.00  0.00     0.015 A 
HETATM    3  C   LIG     1      13.341  30.267  15.391  1.00  0.00     0.001 A 
HETATM    4  C   LIG     1      14.229  30.268  14.313  1.00  0.00     0.000 A 
HETATM    5  C   LIG     1      15.372  31.065  14.356  1.00  0.00     0.001 A 
HETATM    6  C   LIG     1      15.631  31.866  15.473  1.00  0.00     0.015 A 
ENDROOT
BRANCH   1   7
HETATM    7  C   LIG     1      15.041  32.739  17.749  1.00  0.00     0.159 C 
HETATM    8  O   LIG     1      15.324  33.956  17.572  1.00  0.00    -0.292 OA
BRANCH   7   9
HETATM    9  C   LIG     1      15.050  32.213  19.159  1.00  0.00     0.079 C 
HETATM   10  C   LIG     1      15.522  33.284  20.138  1.00  0.00     0.013 C 
ENDBRANCH   7   9
ENDBRANCH   1   7
TORSDOF 2
ENDMDL
MODEL 12
REMARK VINA RESULT:      -5.7      8.666     10.216
REMARK  2 active torsions:
REMARK  status: ('A' for Active; 'I' for Inactive)
REMARK    1  A    between atoms: C_2  and  C_9 
REMARK    2  A    between atoms: C_2  and  C_3 
ROOT
HETATM    1  C   LIG     1      14.861  31.916  16.460  1.00  0.00     0.010 A 
HETATM    2  C   LIG     1      15.748  31.977  15.364  1.00  0.00     0.015 A 
HETATM    3  C   LIG     1      15.536  31.185  14.233  1.00  0.00     0.001 A 
HETATM    4  C   LIG     1      14.440  30.321  14.175  1.00  0.00     0.000 A 
HETATM    5  C   LIG     1      13.554  30.250  15.249  1.00  0.00     0.001 A 
HETATM    6  C   LIG     1      13.760  31.041  16.384  1.00  0.00     0.015 A 
ENDROOT
BRANCH   1   7
HETATM    7  C   LIG     1      15.060  32.750  17.680  1.00  0.00     0.159 C 
HETATM    8  O   LIG     1      15.332  33.976  17.552  1.00  0.00    -0.292 OA
BRANCH   7   9
HETATM    9  C   LIG     1      14.982  32.189  19.074  1.00  0.00     0.079 C 
HETATM   10  C   LIG     1      15.506  33.193  20.096  1.00  0.00     0.013 C 
ENDBRANCH   7   9
ENDBRANCH   1   7
TORSDOF 2
ENDMDL
MODEL 13
REMARK VINA RESULT:      -5.6      9.390     10.457
REMARK  2 active torsions:
REMARK  status: ('A' for Active; 'I' for Inactive)
REMARK    1  A    between atoms: C_2  and  C_9 
REMARK    2  A    between atoms: C_2  and  C_3 
ROOT
HETATM    1  C   LIG     1      15.395  32.414  15.690  1.00  0.00     0.010 A 
HETATM    2  C   LIG     1      15.233  31.287  14.857  1.00  0.00     0.015 A 
HETATM    3  C   LIG     1      14.172  30.399  15.059  1.00  0.00     0.001 A 
HETATM    4  C   LIG     1      13.258  30.621  16.092  1.00  0.00     0.000 A 
HETATM    5  C   LIG     1      13.403  31.732  16.922  1.00  0.00     0.001 A 
HETATM    6  C   LIG     1      14.462  32.624  16.725  1.00  0.00     0.015 A 
ENDROOT
BRANCH   1   7
HETATM    7  C   LIG     1      16.515  33.379  15.498  1.00  0.00     0.159 C 
HETATM    8  O   LIG     1      16.410  34.548  15.961  1.00  0.00    -0.292 OA
BRANCH   7   9
HETATM    9  C   LIG     1      17.769  33.033  14.740  1.00  0.00     0.079 C 
HETATM   10  C   LIG     1      17.824  33.778  13.409  1.00  0.00     0.013 C 
ENDBRANCH   7   9
ENDBRANCH   1   7
TORSDOF 2
ENDMDL
MODEL 14
REMARK VINA RESULT:      -5.6      9.357     10.343
REMARK  2 active torsions:
REMARK  status: ('A' for Active; 'I' for Inactive)
REMARK    1  A    between atoms: C_2  and  C_9 
REMARK    2  A    between atoms: C_2  and  C_3 
ROOT
HETATM    1  C   LIG     1      15.423  32.463  15.721  1.00  0.00     0.010 A 
HETATM    2  C   LIG     1      14.479  32.677  16.748  1.00  0.00     0.015 A 
HETATM    3  C   LIG     1      13.428  31.776  16.947  1.00  0.00     0.001 A 
HETATM    4  C   LIG     1      13.303  30.652  16.129  1.00  0.00     0.000 A 
HETATM    5  C   LIG     1      14.230  30.425  15.112  1.00  0.00     0.001 A 
HETATM    6  C   LIG     1      15.283  31.322  14.907  1.00  0.00     0.015 A 
ENDROOT
BRANCH   1   7
HETATM    7  C   LIG     1      16.555  33.404  15.486  1.00  0.00     0.159 C 
HETATM    8  O   LIG     1      16.478  34.585  15.925  1.00  0.00    -0.292 OA
BRANCH   7   9
HETATM    9  C   LIG     1      17.788  33.021  14.713  1.00  0.00     0.079 C 
HETATM   10  C   LIG     1      17.912  33.849  13.438  1.00  0.00     0.013 C 
ENDBRANCH   7   9
ENDBRANCH   1   7
TORSDOF 2
ENDMDL
MODEL 15
REMARK VINA RESULT:      -5.6     10.546     11.830
REMARK  2 active torsions:
REMARK  status: ('A' for Active; 'I' for Inactive)
REMARK    1  A    between atoms: C_2  and  C_9 
REMARK    2  A    between atoms: C_2  and  C_3 
ROOT
HETATM    1  C   LIG     1      14.352  30.733  15.220  1.00  0.00     0.010 A 
HETATM    2  C   LIG     1      15.438  31.630  15.124  1.00  0.00     0.015 A 
HETATM    3  C   LIG     1      15.547  32.711  16.003  1.00  0.00     0.001 A 
HETATM    4  C   LIG     1      14.579  32.916  16.988  1.00  0.00     0.000 A 
HETATM    5  C   LIG     1      13.501  32.038  17.098  1.00  0.00     0.001 A 
HETATM    6  C   LIG     1      13.386  30.954  16.222  1.00  0.00     0.015 A 
ENDROOT
BRANCH   1   7
HETATM    7  C   LIG     1      14.210  29.570  14.299  1.00  0.00     0.159 C 
HETATM    8  O   LIG     1      13.084  29.013  14.177  1.00  0.00    -0.292 OA
BRANCH   7   9
HETATM    9  C   LIG     1      15.365  28.999  13.521  1.00  0.00     0.079 C 
HETATM   10  C   LIG     1      15.356  27.475  13.572  1.00  0.00     0.013 C 
ENDBRANCH   7   9
ENDBRANCH   1   7
TORSDOF 2
ENDMDL
MODEL 16
REMARK VINA RESULT:      -5.6      9.260     10.987
REMARK  2 active torsions:
REMARK  status: ('A' for Active; 'I' for Inactive)
REMARK    1  A    between atoms: C_2  and  C_9 
REMARK    2  A    between atoms: C_2  and  C_3 
ROOT
HETATM    1  C   LIG     1      14.658  31.509  15.878  1.00  0.00     0.010 A 
HETATM    2  C   LIG     1      14.251  30.370  15.150  1.00  0.00     0.015 A 
HETATM    3  C   LIG     1      14.771  30.118  13.877  1.00  0.00     0.001 A 
HETATM    4  C   LIG     1      15.700  30.993  13.312  1.00  0.00     0.000 A 
HETATM    5  C   LIG     1      16.113  32.122  14.020  1.00  0.00     0.001 A 
HETATM    6  C   LIG     1      15.598  32.380  15.294  1.00  0.00     0.015 A 
ENDROOT
BRANCH   1   7
HETATM    7  C   LIG     1      14.123  31.804  17.239  1.00  0.00     0.159 C 
HETATM    8  O   LIG     1      12.910  31.565  17.491  1.00  0.00    -0.292 OA
BRANCH   7   9
HETATM    9  C   LIG     1      14.963  32.408  18.332  1.00  0.00     0.079 C 
HETATM   10  C   LIG     1      14.856  31.591  19.616  1.00  0.00     0.013 C 
ENDBRANCH   7   9
ENDBRANCH   1   7
TORSDOF 2
ENDMDL
MODEL 17
REMARK VINA RESULT:      -5.5      2.477      3.635
REMARK  2 active torsions:
REMARK  status: ('A' for Active; 'I' for Inactive)
REMARK    1  A    between atoms: C_2  and  C_9 
REMARK    2  A    between atoms: C_2  and  C_3 
ROOT
HETATM    1  C   LIG     1      16.251  36.748  22.528  1.00  0.00     0.010 A 
HETATM    2  C   LIG     1      17.179  35.691  22.404  1.00  0.00     0.015 A 
HETATM    3  C   LIG     1      16.871  34.561  21.642  1.00  0.00     0.001 A 
HETATM    4  C   LIG     1      15.638  34.465  20.993  1.00  0.00     0.000 A 
HETATM    5  C   LIG     1      14.712  35.503  21.103  1.00  0.00     0.001 A 
HETATM    6  C   LIG     1      15.014  36.637  21.863  1.00  0.00     0.015 A 
ENDROOT
BRANCH   1   7
HETATM    7  C   LIG     1      16.552  37.967  23.331  1.00  0.00     0.159 C 
HETATM    8  O   LIG     1      16.374  37.943  24.580  1.00  0.00    -0.292 OA
BRANCH   7   9
HETATM    9  C   LIG     1      17.034  39.253  22.714  1.00  0.00     0.079 C 
HETATM   10  C   LIG     1      18.269  39.014  21.850  1.00  0.00     0.013 C 
ENDBRANCH   7   9
ENDBRANCH   1   7
TORSDOF 2
ENDMDL
MODEL 18
REMARK VINA RESULT:      -5.4      3.466      5.059
REMARK  2 active torsions:
REMARK  status: ('A' for Active; 'I' for Inactive)
REMARK    1  A    between atoms: C_2  and  C_9 
REMARK    2  A    between atoms: C_2  and  C_3 
ROOT
HETATM    1  C   LIG     1      16.411  35.856  20.739  1.00  0.00     0.010 A 
HETATM    2  C   LIG     1      17.635  36.463  20.384  1.00  0.00     0.015 A 
HETATM    3  C   LIG     1      18.138  37.535  21.127  1.00  0.00     0.001 A 
HETATM    4  C   LIG     1      17.433  38.017  22.231  1.00  0.00     0.000 A 
HETATM    5  C   LIG     1      16.224  37.426  22.596  1.00  0.00     0.001 A 
HETATM    6  C   LIG     1      15.715  36.353  21.858  1.00  0.00     0.015 A 
ENDROOT
BRANCH   1   7
HETATM    7  C   LIG     1      15.850  34.710  19.968  1.00  0.00     0.159 C 
HETATM    8  O   LIG     1      15.783  34.785  18.710  1.00  0.00    -0.292 OA
BRANCH   7   9
HETATM    9  C   LIG     1      15.324  33.463  20.627  1.00  0.00     0.079 C 
HETATM   10  C   LIG     1      15.479  32.254  19.708  1.00  0.00     0.013 C 
ENDBRANCH   7   9
ENDBRANCH   1   7
TORSDOF 2
ENDMDL
MODEL 19
REMARK VINA RESULT:      -5.4      1.490      4.137
REMARK  2 active torsions:
REMARK  status: ('A' for Active; 'I' for Inactive)
REMARK    1  A    between atoms: C_2  and  C_9 
REMARK    2  A    between atoms: C_2  and  C_3 
ROOT
HETATM    1  C   LIG     1      17.603  37.144  23.332  1.00  0.00     0.010 A 
HETATM    2  C   LIG     1      17.962  38.509  23.292  1.00  0.00     0.015 A 
HETATM    3  C   LIG     1      18.149  39.159  22.069  1.00  0.00     0.001 A 
HETATM    4  C   LIG     1      17.982  38.463  20.870  1.00  0.00     0.000 A 
HETATM    5  C   LIG     1      17.624  37.115  20.894  1.00  0.00     0.001 A 
HETATM    6  C   LIG     1      17.436  36.458  22.114  1.00  0.00     0.015 A 
ENDROOT
BRANCH   1   7
HETATM    7  C   LIG     1      17.395  36.425  24.621  1.00  0.00     0.159 C 
HETATM    8  O   LIG     1      17.007  35.224  24.603  1.00  0.00    -0.292 OA
BRANCH   7   9
HETATM    9  C   LIG     1      17.597  37.077  25.963  1.00  0.00     0.079 C 
HETATM   10  C   LIG     1      18.489  36.221  26.856  1.00  0.00     0.013 C 
ENDBRANCH   7   9
ENDBRANCH   1   7
TORSDOF 2
ENDMDL
MODEL 20
REMARK VINA RESULT:      -4.9      5.303      6.794
REMARK  2 active torsions:
REMARK  status: ('A' for Active; 'I' for Inactive)
REMARK    1  A    between atoms: C_2  and  C_9 
REMARK    2  A    between atoms: C_2  and  C_3 
ROOT
HETATM    1  C   LIG     1      15.580  33.974  19.483  1.00  0.00     0.010 A 
HETATM    2  C   LIG     1      15.294  34.147  18.112  1.00  0.00     0.015 A 
HETATM    3  C   LIG     1      14.743  33.103  17.363  1.00  0.00     0.001 A 
HETATM    4  C   LIG     1      14.468  31.874  17.968  1.00  0.00     0.000 A 
HETATM    5  C   LIG     1      14.743  31.689  19.322  1.00  0.00     0.001 A 
HETATM    6  C   LIG     1      15.294  32.729  20.077  1.00  0.00     0.015 A 
ENDROOT
BRANCH   1   7
HETATM    7  C   LIG     1      16.166  35.069  20.307  1.00  0.00     0.159 C 
HETATM    8  O   LIG     1      17.094  35.777  19.826  1.00  0.00    -0.292 OA
BRANCH   7   9
HETATM    9  C   LIG     1      15.721  35.358  21.716  1.00  0.00     0.079 C 
HETATM   10  C   LIG     1      16.896  35.277  22.686  1.00  0.00     0.013 C 
ENDBRANCH   7   9
ENDBRANCH   1   7
TORSDOF 2
ENDMDL
