REMARK  2 active torsions:
REMARK  status: ('A' for Active; 'I' for Inactive)
REMARK    1  A    between atoms: C_2  and  C_9 
REMARK    2  A    between atoms: C_2  and  C_3 
ROOT
HETATM    1  C   LIG     1      -0.447   0.253   0.378  1.00  0.00     0.010 A 
HETATM    2  C   LIG     1      -0.511  -0.872  -0.472  1.00  0.00     0.015 A 
HETATM    3  C   LIG     1      -1.708  -1.216  -1.107  1.00  0.00     0.001 A 
HETATM    4  C   LIG     1      -2.856  -0.447  -0.906  1.00  0.00     0.000 A 
HETATM    5  C   LIG     1      -2.808   0.669  -0.071  1.00  0.00     0.001 A 
HETATM    6  C   LIG     1      -1.614   1.019   0.567  1.00  0.00     0.015 A 
ENDROOT
BRANCH   1   7
HETATM    7  C   LIG     1       0.815   0.646   1.067  1.00  0.00     0.159 C 
HETATM    8  O   LIG     1       0.858   1.734   1.705  1.00  0.00    -0.292 OA
BRANCH   7   9
HETATM    9  C   LIG     1       2.068  -0.187   1.013  1.00  0.00     0.079 C 
HETATM   10  C   LIG     1       2.883   0.135  -0.236  1.00  0.00     0.013 C 
ENDBRANCH   7   9
ENDBRANCH   1   7
TORSDOF 2
