MODEL 1
REMARK VINA RESULT:      -6.7      0.000      0.000
REMARK  2 active torsions:
REMARK  status: ('A' for Active; 'I' for Inactive)
REMARK    1  A    between atoms: C_2  and  C_5 
REMARK    2  A    between atoms: C_2  and  O_3 
ROOT
HETATM    1  C   LIG     1      17.221  36.863  24.336  1.00  0.00     0.039 A 
HETATM    2  C   LIG     1      17.081  35.464  24.424  1.00  0.00     0.017 A 
HETATM    3  C   LIG     1      17.626  34.766  25.506  1.00  0.00     0.001 A 
HETATM    4  C   LIG     1      18.315  35.452  26.508  1.00  0.00     0.000 A 
HETATM    5  C   LIG     1      18.460  36.839  26.431  1.00  0.00     0.001 A 
HETATM    6  C   LIG     1      17.917  37.543  25.352  1.00  0.00     0.017 A 
ENDROOT
BRANCH   1   7
HETATM    7  C   LIG     1      16.646  37.609  23.195  1.00  0.00     0.292 C 
HETATM    8  O   LIG     1      15.468  38.056  23.257  1.00  0.00    -0.259 OA
BRANCH   7   9
HETATM    9  O   LIG     1      17.413  37.818  22.043  1.00  0.00    -0.323 OA
HETATM   10  C   LIG     1      18.216  38.978  21.856  1.00  0.00     0.213 C 
ENDBRANCH   7   9
ENDBRANCH   1   7
TORSDOF 2
ENDMDL
MODEL 2
REMARK VINA RESULT:      -6.5      1.878      4.293
REMARK  2 active torsions:
REMARK  status: ('A' for Active; 'I' for Inactive)
REMARK    1  A    between atoms: C_2  and  C_5 
REMARK    2  A    between atoms: C_2  and  O_3 
ROOT
HETATM    1  C   LIG     1      17.452  38.102  21.939  1.00  0.00     0.039 A 
HETATM    2  C   LIG     1      17.518  36.899  21.210  1.00  0.00     0.017 A 
HETATM    3  C   LIG     1      18.396  36.774  20.129  1.00  0.00     0.001 A 
HETATM    4  C   LIG     1      19.216  37.845  19.765  1.00  0.00     0.000 A 
HETATM    5  C   LIG     1      19.159  39.043  20.480  1.00  0.00     0.001 A 
HETATM    6  C   LIG     1      18.283  39.174  21.562  1.00  0.00     0.017 A 
ENDROOT
BRANCH   1   7
HETATM    7  C   LIG     1      16.525  38.242  23.083  1.00  0.00     0.292 C 
HETATM    8  O   LIG     1      15.305  37.948  22.951  1.00  0.00    -0.259 OA
BRANCH   7   9
HETATM    9  O   LIG     1      17.004  38.701  24.315  1.00  0.00    -0.323 OA
HETATM   10  C   LIG     1      17.404  37.822  25.359  1.00  0.00     0.213 C 
ENDBRANCH   7   9
ENDBRANCH   1   7
TORSDOF 2
ENDMDL
MODEL 3
REMARK VINA RESULT:      -6.2      3.603      5.049
REMARK  2 active torsions:
REMARK  status: ('A' for Active; 'I' for Inactive)
REMARK    1  A    between atoms: C_2  and  C_5 
REMARK    2  A    between atoms: C_2  and  O_3 
ROOT
HETATM    1  C   LIG     1      17.857  36.886  20.874  1.00  0.00     0.039 A 
HETATM    2  C   LIG     1      18.765  36.898  19.798  1.00  0.00     0.017 A 
HETATM    3  C   LIG     1      19.505  38.050  19.510  1.00  0.00     0.001 A 
HETATM    4  C   LIG     1      19.347  39.198  20.289  1.00  0.00     0.000 A 
HETATM    5  C   LIG     1      18.448  39.198  21.359  1.00  0.00     0.001 A 
HETATM    6  C   LIG     1      17.706  38.049  21.652  1.00  0.00     0.017 A 
ENDROOT
BRANCH   1   7
HETATM    7  C   LIG     1      17.072  35.672  21.185  1.00  0.00     0.292 C 
HETATM    8  O   LIG     1      16.994  35.253  22.373  1.00  0.00    -0.259 OA
BRANCH   7   9
HETATM    9  O   LIG     1      16.413  34.987  20.159  1.00  0.00    -0.323 OA
HETATM   10  C   LIG     1      15.622  33.828  20.393  1.00  0.00     0.213 C 
ENDBRANCH   7   9
ENDBRANCH   1   7
TORSDOF 2
ENDMDL
MODEL 4
REMARK VINA RESULT:      -6.2      3.753      4.909
REMARK  2 active torsions:
REMARK  status: ('A' for Active; 'I' for Inactive)
REMARK    1  A    between atoms: C_2  and  C_5 
REMARK    2  A    between atoms: C_2  and  O_3 
ROOT
HETATM    1  C   LIG     1      18.580  38.332  20.238  1.00  0.00     0.039 A 
HETATM    2  C   LIG     1      18.374  36.961  19.987  1.00  0.00     0.017 A 
HETATM    3  C   LIG     1      17.649  36.178  20.891  1.00  0.00     0.001 A 
HETATM    4  C   LIG     1      17.124  36.751  22.051  1.00  0.00     0.000 A 
HETATM    5  C   LIG     1      17.323  38.110  22.311  1.00  0.00     0.001 A 
HETATM    6  C   LIG     1      18.047  38.898  21.410  1.00  0.00     0.017 A 
ENDROOT
BRANCH   1   7
HETATM    7  C   LIG     1      19.346  39.166  19.286  1.00  0.00     0.292 C 
HETATM    8  O   LIG     1      20.600  39.257  19.389  1.00  0.00    -0.259 OA
BRANCH   7   9
HETATM    9  O   LIG     1      18.676  39.856  18.270  1.00  0.00    -0.323 OA
HETATM   10  C   LIG     1      18.827  39.531  16.893  1.00  0.00     0.213 C 
ENDBRANCH   7   9
ENDBRANCH   1   7
TORSDOF 2
ENDMDL
MODEL 5
REMARK VINA RESULT:      -5.8      2.090      3.773
REMARK  2 active torsions:
REMARK  status: ('A' for Active; 'I' for Inactive)
REMARK    1  A    between atoms: C_2  and  C_5 
REMARK    2  A    between atoms: C_2  and  O_3 
ROOT
HETATM    1  C   LIG     1      17.384  36.987  23.526  1.00  0.00     0.039 A 
HETATM    2  C   LIG     1      17.023  35.638  23.340  1.00  0.00     0.017 A 
HETATM    3  C   LIG     1      16.908  35.108  22.051  1.00  0.00     0.001 A 
HETATM    4  C   LIG     1      17.152  35.914  20.937  1.00  0.00     0.000 A 
HETATM    5  C   LIG     1      17.510  37.254  21.109  1.00  0.00     0.001 A 
HETATM    6  C   LIG     1      17.626  37.789  22.396  1.00  0.00     0.017 A 
ENDROOT
BRANCH   1   7
HETATM    7  C   LIG     1      17.506  37.555  24.886  1.00  0.00     0.292 C 
HETATM    8  O   LIG     1      16.707  38.452  25.274  1.00  0.00    -0.259 OA
BRANCH   7   9
HETATM    9  O   LIG     1      18.511  37.095  25.745  1.00  0.00    -0.323 OA
HETATM   10  C   LIG     1      18.269  36.129  26.761  1.00  0.00     0.213 C 
ENDBRANCH   7   9
ENDBRANCH   1   7
TORSDOF 2
ENDMDL
MODEL 6
REMARK VINA RESULT:      -5.7      9.455     10.622
REMARK  2 active torsions:
REMARK  status: ('A' for Active; 'I' for Inactive)
REMARK    1  A    between atoms: C_2  and  C_5 
REMARK    2  A    between atoms: C_2  and  O_3 
ROOT
HETATM    1  C   LIG     1      14.765  31.894  16.013  1.00  0.00     0.039 A 
HETATM    2  C   LIG     1      15.644  31.604  14.952  1.00  0.00     0.017 A 
HETATM    3  C   LIG     1      15.357  30.566  14.059  1.00  0.00     0.001 A 
HETATM    4  C   LIG     1      14.194  29.809  14.215  1.00  0.00     0.000 A 
HETATM    5  C   LIG     1      13.314  30.088  15.264  1.00  0.00     0.001 A 
HETATM    6  C   LIG     1      13.596  31.124  16.160  1.00  0.00     0.017 A 
ENDROOT
BRANCH   1   7
HETATM    7  C   LIG     1      15.062  32.990  16.961  1.00  0.00     0.292 C 
HETATM    8  O   LIG     1      14.710  34.172  16.695  1.00  0.00    -0.259 OA
BRANCH   7   9
HETATM    9  O   LIG     1      15.733  32.713  18.157  1.00  0.00    -0.323 OA
HETATM   10  C   LIG     1      15.062  32.272  19.331  1.00  0.00     0.213 C 
ENDBRANCH   7   9
ENDBRANCH   1   7
TORSDOF 2
ENDMDL
MODEL 7
REMARK VINA RESULT:      -5.7      9.871     10.959
REMARK  2 active torsions:
REMARK  status: ('A' for Active; 'I' for Inactive)
REMARK    1  A    between atoms: C_2  and  C_5 
REMARK    2  A    between atoms: C_2  and  O_3 
ROOT
HETATM    1  C   LIG     1      15.507  31.917  15.251  1.00  0.00     0.039 A 
HETATM    2  C   LIG     1      14.877  32.408  16.410  1.00  0.00     0.017 A 
HETATM    3  C   LIG     1      13.709  31.805  16.889  1.00  0.00     0.001 A 
HETATM    4  C   LIG     1      13.160  30.709  16.219  1.00  0.00     0.000 A 
HETATM    5  C   LIG     1      13.777  30.214  15.068  1.00  0.00     0.001 A 
HETATM    6  C   LIG     1      14.945  30.813  14.584  1.00  0.00     0.017 A 
ENDROOT
BRANCH   1   7
HETATM    7  C   LIG     1      16.742  32.550  14.738  1.00  0.00     0.292 C 
HETATM    8  O   LIG     1      17.840  32.376  15.337  1.00  0.00    -0.259 OA
BRANCH   7   9
HETATM    9  O   LIG     1      16.692  33.342  13.586  1.00  0.00    -0.323 OA
HETATM   10  C   LIG     1      17.856  33.900  12.987  1.00  0.00     0.213 C 
ENDBRANCH   7   9
ENDBRANCH   1   7
TORSDOF 2
ENDMDL
MODEL 8
REMARK VINA RESULT:      -5.6      9.941     10.934
REMARK  2 active torsions:
REMARK  status: ('A' for Active; 'I' for Inactive)
REMARK    1  A    between atoms: C_2  and  C_5 
REMARK    2  A    between atoms: C_2  and  O_3 
ROOT
HETATM    1  C   LIG     1      15.494  31.845  15.242  1.00  0.00     0.039 A 
HETATM    2  C   LIG     1      14.917  30.777  14.527  1.00  0.00     0.017 A 
HETATM    3  C   LIG     1      13.738  30.178  14.982  1.00  0.00     0.001 A 
HETATM    4  C   LIG     1      13.124  30.635  16.150  1.00  0.00     0.000 A 
HETATM    5  C   LIG     1      13.688  31.693  16.867  1.00  0.00     0.001 A 
HETATM    6  C   LIG     1      14.867  32.296  16.418  1.00  0.00     0.017 A 
ENDROOT
BRANCH   1   7
HETATM    7  C   LIG     1      16.741  32.484  14.767  1.00  0.00     0.292 C 
HETATM    8  O   LIG     1      17.821  32.315  15.399  1.00  0.00    -0.259 OA
BRANCH   7   9
HETATM    9  O   LIG     1      16.722  33.277  13.615  1.00  0.00    -0.323 OA
HETATM   10  C   LIG     1      17.904  33.633  12.908  1.00  0.00     0.213 C 
ENDBRANCH   7   9
ENDBRANCH   1   7
TORSDOF 2
ENDMDL
MODEL 9
REMARK VINA RESULT:      -5.6      3.175      3.979
REMARK  2 active torsions:
REMARK  status: ('A' for Active; 'I' for Inactive)
REMARK    1  A    between atoms: C_2  and  C_5 
REMARK    2  A    between atoms: C_2  and  O_3 
ROOT
HETATM    1  C   LIG     1      17.964  37.099  20.824  1.00  0.00     0.039 A 
HETATM    2  C   LIG     1      17.366  35.933  21.338  1.00  0.00     0.017 A 
HETATM    3  C   LIG     1      16.650  35.976  22.539  1.00  0.00     0.001 A 
HETATM    4  C   LIG     1      16.524  37.178  23.238  1.00  0.00     0.000 A 
HETATM    5  C   LIG     1      17.114  38.342  22.737  1.00  0.00     0.001 A 
HETATM    6  C   LIG     1      17.830  38.305  21.537  1.00  0.00     0.017 A 
ENDROOT
BRANCH   1   7
HETATM    7  C   LIG     1      18.722  37.062  19.554  1.00  0.00     0.292 C 
HETATM    8  O   LIG     1      18.181  36.616  18.505  1.00  0.00    -0.259 OA
BRANCH   7   9
HETATM    9  O   LIG     1      20.043  37.522  19.518  1.00  0.00    -0.323 OA
HETATM   10  C   LIG     1      20.374  38.884  19.271  1.00  0.00     0.213 C 
ENDBRANCH   7   9
ENDBRANCH   1   7
TORSDOF 2
ENDMDL
MODEL 10
REMARK VINA RESULT:      -5.6      9.945     10.988
REMARK  2 active torsions:
REMARK  status: ('A' for Active; 'I' for Inactive)
REMARK    1  A    between atoms: C_2  and  C_5 
REMARK    2  A    between atoms: C_2  and  O_3 
ROOT
HETATM    1  C   LIG     1      15.270  31.844  15.409  1.00  0.00     0.039 A 
HETATM    2  C   LIG     1      14.152  31.660  16.245  1.00  0.00     0.017 A 
HETATM    3  C   LIG     1      13.244  30.626  15.995  1.00  0.00     0.001 A 
HETATM    4  C   LIG     1      13.441  29.767  14.912  1.00  0.00     0.000 A 
HETATM    5  C   LIG     1      14.547  29.940  14.075  1.00  0.00     0.001 A 
HETATM    6  C   LIG     1      15.458  30.972  14.321  1.00  0.00     0.017 A 
ENDROOT
BRANCH   1   7
HETATM    7  C   LIG     1      16.234  32.936  15.667  1.00  0.00     0.292 C 
HETATM    8  O   LIG     1      15.853  33.999  16.231  1.00  0.00    -0.259 OA
BRANCH   7   9
HETATM    9  O   LIG     1      17.572  32.788  15.286  1.00  0.00    -0.323 OA
HETATM   10  C   LIG     1      18.133  33.475  14.173  1.00  0.00     0.213 C 
ENDBRANCH   7   9
ENDBRANCH   1   7
TORSDOF 2
ENDMDL
MODEL 11
REMARK VINA RESULT:      -5.5      3.491      4.772
REMARK  2 active torsions:
REMARK  status: ('A' for Active; 'I' for Inactive)
REMARK    1  A    between atoms: C_2  and  C_5 
REMARK    2  A    between atoms: C_2  and  O_3 
ROOT
HETATM    1  C   LIG     1      16.389  35.908  21.307  1.00  0.00     0.039 A 
HETATM    2  C   LIG     1      17.520  36.197  20.520  1.00  0.00     0.017 A 
HETATM    3  C   LIG     1      18.235  37.383  20.717  1.00  0.00     0.001 A 
HETATM    4  C   LIG     1      17.830  38.290  21.699  1.00  0.00     0.000 A 
HETATM    5  C   LIG     1      16.709  38.015  22.486  1.00  0.00     0.001 A 
HETATM    6  C   LIG     1      15.991  36.831  22.293  1.00  0.00     0.017 A 
ENDROOT
BRANCH   1   7
HETATM    7  C   LIG     1      15.628  34.656  21.104  1.00  0.00     0.292 C 
HETATM    8  O   LIG     1      14.547  34.462  21.728  1.00  0.00    -0.259 OA
BRANCH   7   9
HETATM    9  O   LIG     1      16.108  33.685  20.218  1.00  0.00    -0.323 OA
HETATM   10  C   LIG     1      15.310  32.598  19.765  1.00  0.00     0.213 C 
ENDBRANCH   7   9
ENDBRANCH   1   7
TORSDOF 2
ENDMDL
MODEL 12
REMARK VINA RESULT:      -5.4     10.910     11.874
REMARK  2 active torsions:
REMARK  status: ('A' for Active; 'I' for Inactive)
REMARK    1  A    between atoms: C_2  and  C_5 
REMARK    2  A    between atoms: C_2  and  O_3 
ROOT
HETATM    1  C   LIG     1      14.320  30.661  15.218  1.00  0.00     0.039 A 
HETATM    2  C   LIG     1      13.389  30.932  16.240  1.00  0.00     0.017 A 
HETATM    3  C   LIG     1      13.557  32.045  17.071  1.00  0.00     0.001 A 
HETATM    4  C   LIG     1      14.649  32.896  16.892  1.00  0.00     0.000 A 
HETATM    5  C   LIG     1      15.579  32.636  15.882  1.00  0.00     0.001 A 
HETATM    6  C   LIG     1      15.417  31.526  15.048  1.00  0.00     0.017 A 
ENDROOT
BRANCH   1   7
HETATM    7  C   LIG     1      14.150  29.486  14.335  1.00  0.00     0.292 C 
HETATM    8  O   LIG     1      13.001  29.002  14.137  1.00  0.00    -0.259 OA
BRANCH   7   9
HETATM    9  O   LIG     1      15.266  28.913  13.717  1.00  0.00    -0.323 OA
HETATM   10  C   LIG     1      15.365  27.518  13.452  1.00  0.00     0.213 C 
ENDBRANCH   7   9
ENDBRANCH   1   7
TORSDOF 2
ENDMDL
MODEL 13
REMARK VINA RESULT:      -5.3      9.513     10.726
REMARK  2 active torsions:
REMARK  status: ('A' for Active; 'I' for Inactive)
REMARK    1  A    between atoms: C_2  and  C_5 
REMARK    2  A    between atoms: C_2  and  O_3 
ROOT
HETATM    1  C   LIG     1      14.885  31.667  16.017  1.00  0.00     0.039 A 
HETATM    2  C   LIG     1      15.821  32.461  15.326  1.00  0.00     0.017 A 
HETATM    3  C   LIG     1      16.164  32.160  14.005  1.00  0.00     0.001 A 
HETATM    4  C   LIG     1      15.580  31.067  13.359  1.00  0.00     0.000 A 
HETATM    5  C   LIG     1      14.651  30.272  14.035  1.00  0.00     0.001 A 
HETATM    6  C   LIG     1      14.303  30.569  15.357  1.00  0.00     0.017 A 
ENDROOT
BRANCH   1   7
HETATM    7  C   LIG     1      14.516  31.979  17.415  1.00  0.00     0.292 C 
HETATM    8  O   LIG     1      13.451  31.517  17.909  1.00  0.00    -0.259 OA
BRANCH   7   9
HETATM    9  O   LIG     1      15.353  32.789  18.192  1.00  0.00    -0.323 OA
HETATM   10  C   LIG     1      15.397  32.709  19.611  1.00  0.00     0.213 C 
ENDBRANCH   7   9
ENDBRANCH   1   7
TORSDOF 2
ENDMDL
MODEL 14
REMARK VINA RESULT:      -5.3     10.825     11.891
REMARK  2 active torsions:
REMARK  status: ('A' for Active; 'I' for Inactive)
REMARK    1  A    between atoms: C_2  and  C_5 
REMARK    2  A    between atoms: C_2  and  O_3 
ROOT
HETATM    1  C   LIG     1      14.743  30.876  15.046  1.00  0.00     0.039 A 
HETATM    2  C   LIG     1      15.580  31.962  15.365  1.00  0.00     0.017 A 
HETATM    3  C   LIG     1      15.239  32.837  16.402  1.00  0.00     0.001 A 
HETATM    4  C   LIG     1      14.063  32.639  17.128  1.00  0.00     0.000 A 
HETATM    5  C   LIG     1      13.224  31.565  16.819  1.00  0.00     0.001 A 
HETATM    6  C   LIG     1      13.560  30.687  15.784  1.00  0.00     0.017 A 
ENDROOT
BRANCH   1   7
HETATM    7  C   LIG     1      15.097  29.946  13.951  1.00  0.00     0.292 C 
HETATM    8  O   LIG     1      15.869  30.321  13.025  1.00  0.00    -0.259 OA
BRANCH   7   9
HETATM    9  O   LIG     1      14.574  28.649  13.943  1.00  0.00    -0.323 OA
HETATM   10  C   LIG     1      15.339  27.515  13.551  1.00  0.00     0.213 C 
ENDBRANCH   7   9
ENDBRANCH   1   7
TORSDOF 2
ENDMDL
MODEL 15
REMARK VINA RESULT:      -4.9      2.243      4.092
REMARK  2 active torsions:
REMARK  status: ('A' for Active; 'I' for Inactive)
REMARK    1  A    between atoms: C_2  and  C_5 
REMARK    2  A    between atoms: C_2  and  O_3 
ROOT
HETATM    1  C   LIG     1      16.920  37.378  22.133  1.00  0.00     0.039 A 
HETATM    2  C   LIG     1      15.537  37.238  22.361  1.00  0.00     0.017 A 
HETATM    3  C   LIG     1      14.808  36.244  21.700  1.00  0.00     0.001 A 
HETATM    4  C   LIG     1      15.448  35.381  20.808  1.00  0.00     0.000 A 
HETATM    5  C   LIG     1      16.819  35.511  20.573  1.00  0.00     0.001 A 
HETATM    6  C   LIG     1      17.553  36.503  21.231  1.00  0.00     0.017 A 
ENDROOT
BRANCH   1   7
HETATM    7  C   LIG     1      17.697  38.427  22.828  1.00  0.00     0.292 C 
HETATM    8  O   LIG     1      18.046  39.472  22.211  1.00  0.00    -0.259 OA
BRANCH   7   9
HETATM    9  O   LIG     1      18.046  38.260  24.172  1.00  0.00    -0.323 OA
HETATM   10  C   LIG     1      17.511  37.218  24.980  1.00  0.00     0.213 C 
ENDBRANCH   7   9
ENDBRANCH   1   7
TORSDOF 2
ENDMDL
MODEL 16
REMARK VINA RESULT:      -4.5      8.224      9.091
REMARK  2 active torsions:
REMARK  status: ('A' for Active; 'I' for Inactive)
REMARK    1  A    between atoms: C_2  and  C_5 
REMARK    2  A    between atoms: C_2  and  O_3 
ROOT
HETATM    1  C   LIG     1      14.545  32.219  17.630  1.00  0.00     0.039 A 
HETATM    2  C   LIG     1      14.704  31.749  18.947  1.00  0.00     0.017 A 
HETATM    3  C   LIG     1      15.214  32.590  19.942  1.00  0.00     0.001 A 
HETATM    4  C   LIG     1      15.569  33.905  19.633  1.00  0.00     0.000 A 
HETATM    5  C   LIG     1      15.417  34.382  18.329  1.00  0.00     0.001 A 
HETATM    6  C   LIG     1      14.907  33.545  17.331  1.00  0.00     0.017 A 
ENDROOT
BRANCH   1   7
HETATM    7  C   LIG     1      14.007  31.335  16.572  1.00  0.00     0.292 C 
HETATM    8  O   LIG     1      12.955  30.669  16.777  1.00  0.00    -0.259 OA
BRANCH   7   9
HETATM    9  O   LIG     1      14.667  31.239  15.343  1.00  0.00    -0.323 OA
HETATM   10  C   LIG     1      14.672  30.047  14.565  1.00  0.00     0.213 C 
ENDBRANCH   7   9
ENDBRANCH   1   7
TORSDOF 2
ENDMDL
MODEL 17
REMARK VINA RESULT:      -4.5     11.386     12.471
REMARK  2 active torsions:
REMARK  status: ('A' for Active; 'I' for Inactive)
REMARK    1  A    between atoms: C_2  and  C_5 
REMARK    2  A    between atoms: C_2  and  O_3 
ROOT
HETATM    1  C   LIG     1      14.839  30.129  14.536  1.00  0.00     0.039 A 
HETATM    2  C   LIG     1      13.441  30.011  14.658  1.00  0.00     0.017 A 
HETATM    3  C   LIG     1      12.796  28.828  14.282  1.00  0.00     0.001 A 
HETATM    4  C   LIG     1      13.536  27.753  13.784  1.00  0.00     0.000 A 
HETATM    5  C   LIG     1      14.923  27.860  13.658  1.00  0.00     0.001 A 
HETATM    6  C   LIG     1      15.573  29.040  14.032  1.00  0.00     0.017 A 
ENDROOT
BRANCH   1   7
HETATM    7  C   LIG     1      15.528  31.377  14.931  1.00  0.00     0.292 C 
HETATM    8  O   LIG     1      16.713  31.594  14.555  1.00  0.00    -0.259 OA
BRANCH   7   9
HETATM    9  O   LIG     1      14.862  32.319  15.723  1.00  0.00    -0.323 OA
HETATM   10  C   LIG     1      15.080  32.435  17.124  1.00  0.00     0.213 C 
ENDBRANCH   7   9
ENDBRANCH   1   7
TORSDOF 2
ENDMDL
MODEL 18
REMARK VINA RESULT:      -4.4     16.986     17.821
REMARK  2 active torsions:
REMARK  status: ('A' for Active; 'I' for Inactive)
REMARK    1  A    between atoms: C_2  and  C_5 
REMARK    2  A    between atoms: C_2  and  O_3 
ROOT
HETATM    1  C   LIG     1       4.057  40.885  34.236  1.00  0.00     0.039 A 
HETATM    2  C   LIG     1       3.986  42.183  33.695  1.00  0.00     0.017 A 
HETATM    3  C   LIG     1       3.587  42.375  32.368  1.00  0.00     0.001 A 
HETATM    4  C   LIG     1       3.256  41.278  31.569  1.00  0.00     0.000 A 
HETATM    5  C   LIG     1       3.323  39.986  32.096  1.00  0.00     0.001 A 
HETATM    6  C   LIG     1       3.721  39.788  33.422  1.00  0.00     0.017 A 
ENDROOT
BRANCH   1   7
HETATM    7  C   LIG     1       4.478  40.675  35.638  1.00  0.00     0.292 C 
HETATM    8  O   LIG     1       5.701  40.547  35.921  1.00  0.00    -0.259 OA
BRANCH   7   9
HETATM    9  O   LIG     1       3.516  40.617  36.653  1.00  0.00    -0.323 OA
HETATM   10  C   LIG     1       3.387  39.501  37.526  1.00  0.00     0.213 C 
ENDBRANCH   7   9
ENDBRANCH   1   7
TORSDOF 2
ENDMDL
MODEL 19
REMARK VINA RESULT:      -4.3     10.225     11.530
REMARK  2 active torsions:
REMARK  status: ('A' for Active; 'I' for Inactive)
REMARK    1  A    between atoms: C_2  and  C_5 
REMARK    2  A    between atoms: C_2  and  O_3 
ROOT
HETATM    1  C   LIG     1      15.591  31.676  14.703  1.00  0.00     0.039 A 
HETATM    2  C   LIG     1      16.195  32.471  15.696  1.00  0.00     0.017 A 
HETATM    3  C   LIG     1      17.181  33.402  15.353  1.00  0.00     0.001 A 
HETATM    4  C   LIG     1      17.573  33.549  14.021  1.00  0.00     0.000 A 
HETATM    5  C   LIG     1      16.981  32.765  13.028  1.00  0.00     0.001 A 
HETATM    6  C   LIG     1      15.995  31.833  13.364  1.00  0.00     0.017 A 
ENDROOT
BRANCH   1   7
HETATM    7  C   LIG     1      14.547  30.689  15.058  1.00  0.00     0.292 C 
HETATM    8  O   LIG     1      14.180  29.824  14.217  1.00  0.00    -0.259 OA
BRANCH   7   9
HETATM    9  O   LIG     1      13.967  30.717  16.331  1.00  0.00    -0.323 OA
HETATM   10  C   LIG     1      12.804  31.481  16.629  1.00  0.00     0.213 C 
ENDBRANCH   7   9
ENDBRANCH   1   7
TORSDOF 2
ENDMDL
MODEL 20
REMARK VINA RESULT:      -4.2      7.571      8.596
REMARK  2 active torsions:
REMARK  status: ('A' for Active; 'I' for Inactive)
REMARK    1  A    between atoms: C_2  and  C_5 
REMARK    2  A    between atoms: C_2  and  O_3 
ROOT
HETATM    1  C   LIG     1      14.984  32.767  17.941  1.00  0.00     0.039 A 
HETATM    2  C   LIG     1      15.257  34.144  17.834  1.00  0.00     0.017 A 
HETATM    3  C   LIG     1      15.616  34.884  18.965  1.00  0.00     0.001 A 
HETATM    4  C   LIG     1      15.708  34.259  20.211  1.00  0.00     0.000 A 
HETATM    5  C   LIG     1      15.439  32.893  20.329  1.00  0.00     0.001 A 
HETATM    6  C   LIG     1      15.079  32.149  19.202  1.00  0.00     0.017 A 
ENDROOT
BRANCH   1   7
HETATM    7  C   LIG     1      14.603  31.978  16.749  1.00  0.00     0.292 C 
HETATM    8  O   LIG     1      15.199  32.160  15.651  1.00  0.00    -0.259 OA
BRANCH   7   9
HETATM    9  O   LIG     1      13.580  31.028  16.840  1.00  0.00    -0.323 OA
HETATM   10  C   LIG     1      12.946  30.470  15.695  1.00  0.00     0.213 C 
ENDBRANCH   7   9
ENDBRANCH   1   7
TORSDOF 2
ENDMDL
