REMARK  2 active torsions:
REMARK  status: ('A' for Active; 'I' for Inactive)
REMARK    1  A    between atoms: C_2  and  C_5 
REMARK    2  A    between atoms: C_2  and  O_3 
ROOT
HETATM    1  C   LIG     1      -0.196  -0.272   0.095  1.00  0.00     0.039 A 
HETATM    2  C   LIG     1      -0.985  -1.373   0.480  1.00  0.00     0.017 A 
HETATM    3  C   LIG     1      -2.380  -1.273   0.493  1.00  0.00     0.001 A 
HETATM    4  C   LIG     1      -3.001  -0.078   0.123  1.00  0.00     0.000 A 
HETATM    5  C   LIG     1      -2.228   1.021  -0.260  1.00  0.00     0.001 A 
HETATM    6  C   LIG     1      -0.833   0.927  -0.275  1.00  0.00     0.017 A 
ENDROOT
BRANCH   1   7
HETATM    7  C   LIG     1       1.280  -0.370   0.079  1.00  0.00     0.292 C 
HETATM    8  O   LIG     1       1.848  -1.447   0.411  1.00  0.00    -0.259 OA
BRANCH   7   9
HETATM    9  O   LIG     1       2.047   0.735  -0.306  1.00  0.00    -0.323 OA
HETATM   10  C   LIG     1       3.469   0.707  -0.344  1.00  0.00     0.213 C 
ENDBRANCH   7   9
ENDBRANCH   1   7
TORSDOF 2
