REMARK  4 active torsions:
REMARK  status: ('A' for Active; 'I' for Inactive)
REMARK    1  A    between atoms: C_6  and  O_7 
REMARK    2  A    between atoms: O_7  and  C_8 
REMARK    3  A    between atoms: C_8  and  C_10 
REMARK    4  A    between atoms: C_10  and  O_11 
ROOT
HETATM    1 CL   LIG     1      -4.916   1.257   0.396  1.00  0.00    -0.084 Cl
HETATM    2  C   LIG     1      -3.241   0.800   0.144  1.00  0.00     0.034 A 
HETATM    3  C   LIG     1      -2.869  -0.546   0.189  1.00  0.00     0.033 A 
HETATM    4  C   LIG     1      -1.530  -0.920  -0.011  1.00  0.00    -0.027 A 
HETATM    5  C   LIG     1      -1.138  -2.370   0.040  1.00  0.00     0.051 C 
HETATM    6  C   LIG     1      -0.555   0.068  -0.257  1.00  0.00     0.076 A 
HETATM    7  C   LIG     1      -0.945   1.422  -0.304  1.00  0.00     0.039 A 
HETATM    8  C   LIG     1      -2.280   1.781  -0.103  1.00  0.00     0.026 A 
ENDROOT
BRANCH   6   9
HETATM    9  O   LIG     1       0.777  -0.339  -0.457  1.00  0.00    -0.335 OA
BRANCH   9  10
HETATM   10  C   LIG     1       1.911   0.521  -0.583  1.00  0.00     0.222 C 
HETATM   11  C   LIG     1       2.288   1.112   0.778  1.00  0.00     0.051 C 
BRANCH  10  12
HETATM   12  C   LIG     1       3.060  -0.279  -1.128  1.00  0.00     0.170 C 
HETATM   13  O   LIG     1       3.665   0.115  -2.160  1.00  0.00    -0.648 OA
BRANCH  12  14
HETATM   14  O   LIG     1       3.465  -1.458  -0.508  1.00  0.00    -0.774 OA
HETATM   15  H   LIG     1       2.990  -1.813   0.312  1.00  0.00     0.167 HD
ENDBRANCH  12  14
ENDBRANCH  10  12
ENDBRANCH   9  10
ENDBRANCH   6   9
TORSDOF 4
