MODEL 1
REMARK VINA RESULT:      -7.5      0.000      0.000
REMARK  4 active torsions:
REMARK  status: ('A' for Active; 'I' for Inactive)
REMARK    1  A    between atoms: C_6  and  O_7 
REMARK    2  A    between atoms: O_7  and  C_8 
REMARK    3  A    between atoms: C_8  and  C_10 
REMARK    4  A    between atoms: C_10  and  O_11 
ROOT
HETATM    1 CL   LIG     1      20.228  38.851  19.064  1.00  0.00    -0.084 Cl
HETATM    2  C   LIG     1      19.088  38.384  20.313  1.00  0.00     0.034 A 
HETATM    3  C   LIG     1      18.428  37.155  20.233  1.00  0.00     0.033 A 
HETATM    4  C   LIG     1      17.514  36.774  21.229  1.00  0.00    -0.027 A 
HETATM    5  C   LIG     1      16.806  35.451  21.134  1.00  0.00     0.051 C 
HETATM    6  C   LIG     1      17.260  37.635  22.315  1.00  0.00     0.076 A 
HETATM    7  C   LIG     1      17.937  38.870  22.386  1.00  0.00     0.039 A 
HETATM    8  C   LIG     1      18.843  39.238  21.389  1.00  0.00     0.026 A 
ENDROOT
BRANCH   6   9
HETATM    9  O   LIG     1      16.342  37.223  23.298  1.00  0.00    -0.335 OA
BRANCH   9  10
HETATM   10  C   LIG     1      16.665  36.736  24.602  1.00  0.00     0.222 C 
HETATM   11  C   LIG     1      17.415  35.405  24.505  1.00  0.00     0.051 C 
BRANCH  10  12
HETATM   12  C   LIG     1      17.524  37.756  25.294  1.00  0.00     0.170 C 
HETATM   13  O   LIG     1      17.053  38.893  25.564  1.00  0.00    -0.648 OA
BRANCH  12  14
HETATM   14  O   LIG     1      18.840  37.463  25.640  1.00  0.00    -0.774 OA
HETATM   15  H   LIG     1      19.157  36.508  25.751  1.00  0.00     0.167 HD
ENDBRANCH  12  14
ENDBRANCH  10  12
ENDBRANCH   9  10
ENDBRANCH   6   9
TORSDOF 4
ENDMDL
MODEL 2
REMARK VINA RESULT:      -7.0      3.229      5.139
REMARK  4 active torsions:
REMARK  status: ('A' for Active; 'I' for Inactive)
REMARK    1  A    between atoms: C_6  and  O_7 
REMARK    2  A    between atoms: O_7  and  C_8 
REMARK    3  A    between atoms: C_8  and  C_10 
REMARK    4  A    between atoms: C_10  and  O_11 
ROOT
HETATM    1 CL   LIG     1      18.379  36.307  27.262  1.00  0.00    -0.084 Cl
HETATM    2  C   LIG     1      17.794  36.321  25.608  1.00  0.00     0.034 A 
HETATM    3  C   LIG     1      17.588  37.537  24.950  1.00  0.00     0.033 A 
HETATM    4  C   LIG     1      17.119  37.557  23.626  1.00  0.00    -0.027 A 
HETATM    5  C   LIG     1      16.899  38.868  22.925  1.00  0.00     0.051 C 
HETATM    6  C   LIG     1      16.852  36.345  22.958  1.00  0.00     0.076 A 
HETATM    7  C   LIG     1      17.068  35.126  23.632  1.00  0.00     0.039 A 
HETATM    8  C   LIG     1      17.535  35.119  24.949  1.00  0.00     0.026 A 
ENDROOT
BRANCH   6   9
HETATM    9  O   LIG     1      16.387  36.398  21.631  1.00  0.00    -0.335 OA
BRANCH   9  10
HETATM   10  C   LIG     1      16.915  35.668  20.522  1.00  0.00     0.222 C 
HETATM   11  C   LIG     1      15.783  35.182  19.613  1.00  0.00     0.051 C 
BRANCH  10  12
HETATM   12  C   LIG     1      17.837  36.569  19.751  1.00  0.00     0.170 C 
HETATM   13  O   LIG     1      17.925  36.455  18.500  1.00  0.00    -0.648 OA
BRANCH  12  14
HETATM   14  O   LIG     1      18.604  37.531  20.404  1.00  0.00    -0.774 OA
HETATM   15  H   LIG     1      18.760  37.493  21.403  1.00  0.00     0.167 HD
ENDBRANCH  12  14
ENDBRANCH  10  12
ENDBRANCH   9  10
ENDBRANCH   6   9
TORSDOF 4
ENDMDL
MODEL 3
REMARK VINA RESULT:      -6.9      3.195      5.129
REMARK  4 active torsions:
REMARK  status: ('A' for Active; 'I' for Inactive)
REMARK    1  A    between atoms: C_6  and  O_7 
REMARK    2  A    between atoms: O_7  and  C_8 
REMARK    3  A    between atoms: C_8  and  C_10 
REMARK    4  A    between atoms: C_10  and  O_11 
ROOT
HETATM    1 CL   LIG     1      19.059  36.694  26.895  1.00  0.00    -0.084 Cl
HETATM    2  C   LIG     1      18.053  36.611  25.460  1.00  0.00     0.034 A 
HETATM    3  C   LIG     1      17.749  37.776  24.751  1.00  0.00     0.033 A 
HETATM    4  C   LIG     1      16.944  37.718  23.601  1.00  0.00    -0.027 A 
HETATM    5  C   LIG     1      16.621  38.975  22.844  1.00  0.00     0.051 C 
HETATM    6  C   LIG     1      16.437  36.478  23.162  1.00  0.00     0.076 A 
HETATM    7  C   LIG     1      16.754  35.310  23.885  1.00  0.00     0.039 A 
HETATM    8  C   LIG     1      17.556  35.381  25.027  1.00  0.00     0.026 A 
ENDROOT
BRANCH   6   9
HETATM    9  O   LIG     1      15.636  36.452  22.005  1.00  0.00    -0.335 OA
BRANCH   9  10
HETATM   10  C   LIG     1      15.965  35.822  20.766  1.00  0.00     0.222 C 
HETATM   11  C   LIG     1      17.480  35.840  20.543  1.00  0.00     0.051 C 
BRANCH  10  12
HETATM   12  C   LIG     1      15.472  34.404  20.804  1.00  0.00     0.170 C 
HETATM   13  O   LIG     1      16.059  33.517  20.130  1.00  0.00    -0.648 OA
BRANCH  12  14
HETATM   14  O   LIG     1      14.366  34.055  21.575  1.00  0.00    -0.774 OA
HETATM   15  H   LIG     1      13.601  34.701  21.724  1.00  0.00     0.167 HD
ENDBRANCH  12  14
ENDBRANCH  10  12
ENDBRANCH   9  10
ENDBRANCH   6   9
TORSDOF 4
ENDMDL
MODEL 4
REMARK VINA RESULT:      -6.7      2.137      3.598
REMARK  4 active torsions:
REMARK  status: ('A' for Active; 'I' for Inactive)
REMARK    1  A    between atoms: C_6  and  O_7 
REMARK    2  A    between atoms: O_7  and  C_8 
REMARK    3  A    between atoms: C_8  and  C_10 
REMARK    4  A    between atoms: C_10  and  O_11 
ROOT
HETATM    1 CL   LIG     1      20.921  39.384  18.734  1.00  0.00    -0.084 Cl
HETATM    2  C   LIG     1      19.668  38.564  19.648  1.00  0.00     0.034 A 
HETATM    3  C   LIG     1      19.013  39.229  20.687  1.00  0.00     0.033 A 
HETATM    4  C   LIG     1      18.009  38.580  21.424  1.00  0.00    -0.027 A 
HETATM    5  C   LIG     1      17.309  39.302  22.542  1.00  0.00     0.051 C 
HETATM    6  C   LIG     1      17.661  37.249  21.115  1.00  0.00     0.076 A 
HETATM    7  C   LIG     1      18.327  36.592  20.061  1.00  0.00     0.039 A 
HETATM    8  C   LIG     1      19.324  37.248  19.336  1.00  0.00     0.026 A 
ENDROOT
BRANCH   6   9
HETATM    9  O   LIG     1      16.649  36.628  21.869  1.00  0.00    -0.335 OA
BRANCH   9  10
HETATM   10  C   LIG     1      16.476  35.221  22.051  1.00  0.00     0.222 C 
HETATM   11  C   LIG     1      16.696  34.839  23.517  1.00  0.00     0.051 C 
BRANCH  10  12
HETATM   12  C   LIG     1      15.081  34.852  21.631  1.00  0.00     0.170 C 
HETATM   13  O   LIG     1      14.706  33.651  21.687  1.00  0.00    -0.648 OA
BRANCH  12  14
HETATM   14  O   LIG     1      14.193  35.824  21.176  1.00  0.00    -0.774 OA
HETATM   15  H   LIG     1      13.199  35.643  21.116  1.00  0.00     0.167 HD
ENDBRANCH  12  14
ENDBRANCH  10  12
ENDBRANCH   9  10
ENDBRANCH   6   9
TORSDOF 4
ENDMDL
MODEL 5
REMARK VINA RESULT:      -6.7      3.344      5.161
REMARK  4 active torsions:
REMARK  status: ('A' for Active; 'I' for Inactive)
REMARK    1  A    between atoms: C_6  and  O_7 
REMARK    2  A    between atoms: O_7  and  C_8 
REMARK    3  A    between atoms: C_8  and  C_10 
REMARK    4  A    between atoms: C_10  and  O_11 
ROOT
HETATM    1 CL   LIG     1      16.929  34.713  26.070  1.00  0.00    -0.084 Cl
HETATM    2  C   LIG     1      17.173  35.595  24.573  1.00  0.00     0.034 A 
HETATM    3  C   LIG     1      17.416  36.970  24.603  1.00  0.00     0.033 A 
HETATM    4  C   LIG     1      17.612  37.684  23.409  1.00  0.00    -0.027 A 
HETATM    5  C   LIG     1      17.872  39.163  23.450  1.00  0.00     0.051 C 
HETATM    6  C   LIG     1      17.562  37.008  22.173  1.00  0.00     0.076 A 
HETATM    7  C   LIG     1      17.320  35.620  22.157  1.00  0.00     0.039 A 
HETATM    8  C   LIG     1      17.127  34.922  23.352  1.00  0.00     0.026 A 
ENDROOT
BRANCH   6   9
HETATM    9  O   LIG     1      17.766  37.750  20.994  1.00  0.00    -0.335 OA
BRANCH   9  10
HETATM   10  C   LIG     1      18.911  37.683  20.144  1.00  0.00     0.222 C 
HETATM   11  C   LIG     1      18.545  37.043  18.802  1.00  0.00     0.051 C 
BRANCH  10  12
HETATM   12  C   LIG     1      19.424  39.077  19.920  1.00  0.00     0.170 C 
HETATM   13  O   LIG     1      18.780  40.062  20.369  1.00  0.00    -0.648 OA
BRANCH  12  14
HETATM   14  O   LIG     1      20.606  39.298  19.218  1.00  0.00    -0.774 OA
HETATM   15  H   LIG     1      21.142  40.147  19.340  1.00  0.00     0.167 HD
ENDBRANCH  12  14
ENDBRANCH  10  12
ENDBRANCH   9  10
ENDBRANCH   6   9
TORSDOF 4
ENDMDL
MODEL 6
REMARK VINA RESULT:      -6.7      1.575      2.753
REMARK  4 active torsions:
REMARK  status: ('A' for Active; 'I' for Inactive)
REMARK    1  A    between atoms: C_6  and  O_7 
REMARK    2  A    between atoms: O_7  and  C_8 
REMARK    3  A    between atoms: C_8  and  C_10 
REMARK    4  A    between atoms: C_10  and  O_11 
ROOT
HETATM    1 CL   LIG     1      19.311  39.483  17.039  1.00  0.00    -0.084 Cl
HETATM    2  C   LIG     1      18.926  38.744  18.583  1.00  0.00     0.034 A 
HETATM    3  C   LIG     1      18.818  39.536  19.729  1.00  0.00     0.033 A 
HETATM    4  C   LIG     1      18.511  38.952  20.969  1.00  0.00    -0.027 A 
HETATM    5  C   LIG     1      18.398  39.810  22.197  1.00  0.00     0.051 C 
HETATM    6  C   LIG     1      18.311  37.559  21.058  1.00  0.00     0.076 A 
HETATM    7  C   LIG     1      18.419  36.773  19.893  1.00  0.00     0.039 A 
HETATM    8  C   LIG     1      18.726  37.366  18.666  1.00  0.00     0.026 A 
ENDROOT
BRANCH   6   9
HETATM    9  O   LIG     1      18.001  37.005  22.314  1.00  0.00    -0.335 OA
BRANCH   9  10
HETATM   10  C   LIG     1      16.731  36.489  22.716  1.00  0.00     0.222 C 
HETATM   11  C   LIG     1      16.908  35.193  23.512  1.00  0.00     0.051 C 
BRANCH  10  12
HETATM   12  C   LIG     1      16.043  37.520  23.566  1.00  0.00     0.170 C 
HETATM   13  O   LIG     1      16.452  37.743  24.736  1.00  0.00    -0.648 OA
BRANCH  12  14
HETATM   14  O   LIG     1      14.951  38.233  23.077  1.00  0.00    -0.774 OA
HETATM   15  H   LIG     1      14.289  38.677  23.700  1.00  0.00     0.167 HD
ENDBRANCH  12  14
ENDBRANCH  10  12
ENDBRANCH   9  10
ENDBRANCH   6   9
TORSDOF 4
ENDMDL
MODEL 7
REMARK VINA RESULT:      -6.5      2.106      3.137
REMARK  4 active torsions:
REMARK  status: ('A' for Active; 'I' for Inactive)
REMARK    1  A    between atoms: C_6  and  O_7 
REMARK    2  A    between atoms: O_7  and  C_8 
REMARK    3  A    between atoms: C_8  and  C_10 
REMARK    4  A    between atoms: C_10  and  O_11 
ROOT
HETATM    1 CL   LIG     1      15.293  34.326  18.415  1.00  0.00    -0.084 Cl
HETATM    2  C   LIG     1      15.958  34.980  19.901  1.00  0.00     0.034 A 
HETATM    3  C   LIG     1      16.832  36.069  19.857  1.00  0.00     0.033 A 
HETATM    4  C   LIG     1      17.369  36.597  21.042  1.00  0.00    -0.027 A 
HETATM    5  C   LIG     1      18.309  37.769  20.986  1.00  0.00     0.051 C 
HETATM    6  C   LIG     1      17.027  36.025  22.284  1.00  0.00     0.076 A 
HETATM    7  C   LIG     1      16.141  34.929  22.314  1.00  0.00     0.039 A 
HETATM    8  C   LIG     1      15.613  34.412  21.128  1.00  0.00     0.026 A 
ENDROOT
BRANCH   6   9
HETATM    9  O   LIG     1      17.579  36.579  23.453  1.00  0.00    -0.335 OA
BRANCH   9  10
HETATM   10  C   LIG     1      17.091  36.397  24.784  1.00  0.00     0.222 C 
HETATM   11  C   LIG     1      17.543  35.043  25.339  1.00  0.00     0.051 C 
BRANCH  10  12
HETATM   12  C   LIG     1      17.625  37.505  25.646  1.00  0.00     0.170 C 
HETATM   13  O   LIG     1      17.096  38.648  25.597  1.00  0.00    -0.648 OA
BRANCH  12  14
HETATM   14  O   LIG     1      18.704  37.289  26.498  1.00  0.00    -0.774 OA
HETATM   15  H   LIG     1      19.088  36.363  26.638  1.00  0.00     0.167 HD
ENDBRANCH  12  14
ENDBRANCH  10  12
ENDBRANCH   9  10
ENDBRANCH   6   9
TORSDOF 4
ENDMDL
MODEL 8
REMARK VINA RESULT:      -6.4      6.752      8.603
REMARK  4 active torsions:
REMARK  status: ('A' for Active; 'I' for Inactive)
REMARK    1  A    between atoms: C_6  and  O_7 
REMARK    2  A    between atoms: O_7  and  C_8 
REMARK    3  A    between atoms: C_8  and  C_10 
REMARK    4  A    between atoms: C_10  and  O_11 
ROOT
HETATM    1 CL   LIG     1      13.135  29.156  13.916  1.00  0.00    -0.084 Cl
HETATM    2  C   LIG     1      13.729  30.315  15.091  1.00  0.00     0.034 A 
HETATM    3  C   LIG     1      14.965  30.937  14.897  1.00  0.00     0.033 A 
HETATM    4  C   LIG     1      15.448  31.866  15.833  1.00  0.00    -0.027 A 
HETATM    5  C   LIG     1      16.779  32.530  15.617  1.00  0.00     0.051 C 
HETATM    6  C   LIG     1      14.682  32.172  16.977  1.00  0.00     0.076 A 
HETATM    7  C   LIG     1      13.435  31.540  17.158  1.00  0.00     0.039 A 
HETATM    8  C   LIG     1      12.966  30.618  16.220  1.00  0.00     0.026 A 
ENDROOT
BRANCH   6   9
HETATM    9  O   LIG     1      15.192  33.109  17.894  1.00  0.00    -0.335 OA
BRANCH   9  10
HETATM   10  C   LIG     1      15.116  33.022  19.318  1.00  0.00     0.222 C 
HETATM   11  C   LIG     1      15.855  31.778  19.818  1.00  0.00     0.051 C 
BRANCH  10  12
HETATM   12  C   LIG     1      15.737  34.256  19.907  1.00  0.00     0.170 C 
HETATM   13  O   LIG     1      16.202  35.148  19.148  1.00  0.00    -0.648 OA
BRANCH  12  14
HETATM   14  O   LIG     1      15.812  34.428  21.287  1.00  0.00    -0.774 OA
HETATM   15  H   LIG     1      15.914  33.639  21.912  1.00  0.00     0.167 HD
ENDBRANCH  12  14
ENDBRANCH  10  12
ENDBRANCH   9  10
ENDBRANCH   6   9
TORSDOF 4
ENDMDL
MODEL 9
REMARK VINA RESULT:      -5.9      1.380      2.569
REMARK  4 active torsions:
REMARK  status: ('A' for Active; 'I' for Inactive)
REMARK    1  A    between atoms: C_6  and  O_7 
REMARK    2  A    between atoms: O_7  and  C_8 
REMARK    3  A    between atoms: C_8  and  C_10 
REMARK    4  A    between atoms: C_10  and  O_11 
ROOT
HETATM    1 CL   LIG     1      19.742  38.931  18.102  1.00  0.00    -0.084 Cl
HETATM    2  C   LIG     1      18.941  38.378  19.562  1.00  0.00     0.034 A 
HETATM    3  C   LIG     1      18.515  39.302  20.519  1.00  0.00     0.033 A 
HETATM    4  C   LIG     1      17.874  38.866  21.691  1.00  0.00    -0.027 A 
HETATM    5  C   LIG     1      17.420  39.867  22.716  1.00  0.00     0.051 C 
HETATM    6  C   LIG     1      17.661  37.489  21.903  1.00  0.00     0.076 A 
HETATM    7  C   LIG     1      18.092  36.568  20.927  1.00  0.00     0.039 A 
HETATM    8  C   LIG     1      18.729  37.014  19.766  1.00  0.00     0.026 A 
ENDROOT
BRANCH   6   9
HETATM    9  O   LIG     1      17.013  37.085  23.085  1.00  0.00    -0.335 OA
BRANCH   9  10
HETATM   10  C   LIG     1      17.633  36.865  24.353  1.00  0.00     0.222 C 
HETATM   11  C   LIG     1      17.165  37.913  25.366  1.00  0.00     0.051 C 
BRANCH  10  12
HETATM   12  C   LIG     1      17.265  35.490  24.834  1.00  0.00     0.170 C 
HETATM   13  O   LIG     1      17.063  34.567  24.001  1.00  0.00    -0.648 OA
BRANCH  12  14
HETATM   14  O   LIG     1      17.138  35.221  26.194  1.00  0.00    -0.774 OA
HETATM   15  H   LIG     1      17.927  35.300  26.823  1.00  0.00     0.167 HD
ENDBRANCH  12  14
ENDBRANCH  10  12
ENDBRANCH   9  10
ENDBRANCH   6   9
TORSDOF 4
ENDMDL
MODEL 10
REMARK VINA RESULT:      -5.9      9.240     10.965
REMARK  4 active torsions:
REMARK  status: ('A' for Active; 'I' for Inactive)
REMARK    1  A    between atoms: C_6  and  O_7 
REMARK    2  A    between atoms: O_7  and  C_8 
REMARK    3  A    between atoms: C_8  and  C_10 
REMARK    4  A    between atoms: C_10  and  O_11 
ROOT
HETATM    1 CL   LIG     1      13.796  31.828  17.759  1.00  0.00    -0.084 Cl
HETATM    2  C   LIG     1      14.871  32.134  16.408  1.00  0.00     0.034 A 
HETATM    3  C   LIG     1      14.856  31.288  15.296  1.00  0.00     0.033 A 
HETATM    4  C   LIG     1      15.714  31.526  14.210  1.00  0.00    -0.027 A 
HETATM    5  C   LIG     1      15.692  30.611  13.018  1.00  0.00     0.051 C 
HETATM    6  C   LIG     1      16.598  32.624  14.242  1.00  0.00     0.076 A 
HETATM    7  C   LIG     1      16.600  33.472  15.368  1.00  0.00     0.039 A 
HETATM    8  C   LIG     1      15.742  33.224  16.442  1.00  0.00     0.026 A 
ENDROOT
BRANCH   6   9
HETATM    9  O   LIG     1      17.443  32.838  13.137  1.00  0.00    -0.335 OA
BRANCH   9  10
HETATM   10  C   LIG     1      18.327  33.945  12.954  1.00  0.00     0.222 C 
HETATM   11  C   LIG     1      19.720  33.457  12.550  1.00  0.00     0.051 C 
BRANCH  10  12
HETATM   12  C   LIG     1      17.766  34.833  11.879  1.00  0.00     0.170 C 
HETATM   13  O   LIG     1      16.877  35.679  12.165  1.00  0.00    -0.648 OA
BRANCH  12  14
HETATM   14  O   LIG     1      18.213  34.730  10.565  1.00  0.00    -0.774 OA
HETATM   15  H   LIG     1      18.788  33.954  10.262  1.00  0.00     0.167 HD
ENDBRANCH  12  14
ENDBRANCH  10  12
ENDBRANCH   9  10
ENDBRANCH   6   9
TORSDOF 4
ENDMDL
MODEL 11
REMARK VINA RESULT:      -5.9      1.620      2.336
REMARK  4 active torsions:
REMARK  status: ('A' for Active; 'I' for Inactive)
REMARK    1  A    between atoms: C_6  and  O_7 
REMARK    2  A    between atoms: O_7  and  C_8 
REMARK    3  A    between atoms: C_8  and  C_10 
REMARK    4  A    between atoms: C_10  and  O_11 
ROOT
HETATM    1 CL   LIG     1      19.219  39.292  17.641  1.00  0.00    -0.084 Cl
HETATM    2  C   LIG     1      18.801  38.648  19.219  1.00  0.00     0.034 A 
HETATM    3  C   LIG     1      18.267  37.362  19.330  1.00  0.00     0.033 A 
HETATM    4  C   LIG     1      17.929  36.839  20.589  1.00  0.00    -0.027 A 
HETATM    5  C   LIG     1      17.354  35.455  20.700  1.00  0.00     0.051 C 
HETATM    6  C   LIG     1      18.128  37.618  21.748  1.00  0.00     0.076 A 
HETATM    7  C   LIG     1      18.671  38.912  21.621  1.00  0.00     0.039 A 
HETATM    8  C   LIG     1      19.003  39.420  20.363  1.00  0.00     0.026 A 
ENDROOT
BRANCH   6   9
HETATM    9  O   LIG     1      17.783  37.065  22.995  1.00  0.00    -0.335 OA
BRANCH   9  10
HETATM   10  C   LIG     1      16.665  37.440  23.802  1.00  0.00     0.222 C 
HETATM   11  C   LIG     1      17.049  38.581  24.748  1.00  0.00     0.051 C 
BRANCH  10  12
HETATM   12  C   LIG     1      15.548  37.879  22.899  1.00  0.00     0.170 C 
HETATM   13  O   LIG     1      14.801  37.019  22.363  1.00  0.00    -0.648 OA
BRANCH  12  14
HETATM   14  O   LIG     1      15.328  39.229  22.643  1.00  0.00    -0.774 OA
HETATM   15  H   LIG     1      14.988  39.547  21.744  1.00  0.00     0.167 HD
ENDBRANCH  12  14
ENDBRANCH  10  12
ENDBRANCH   9  10
ENDBRANCH   6   9
TORSDOF 4
ENDMDL
MODEL 12
REMARK VINA RESULT:      -5.5      8.165     10.126
REMARK  4 active torsions:
REMARK  status: ('A' for Active; 'I' for Inactive)
REMARK    1  A    between atoms: C_6  and  O_7 
REMARK    2  A    between atoms: O_7  and  C_8 
REMARK    3  A    between atoms: C_8  and  C_10 
REMARK    4  A    between atoms: C_10  and  O_11 
ROOT
HETATM    1 CL   LIG     1      14.465  27.409  13.405  1.00  0.00    -0.084 Cl
HETATM    2  C   LIG     1      14.419  28.998  14.148  1.00  0.00     0.034 A 
HETATM    3  C   LIG     1      15.492  29.878  13.983  1.00  0.00     0.033 A 
HETATM    4  C   LIG     1      15.464  31.151  14.576  1.00  0.00    -0.027 A 
HETATM    5  C   LIG     1      16.623  32.091  14.394  1.00  0.00     0.051 C 
HETATM    6  C   LIG     1      14.348  31.544  15.342  1.00  0.00     0.076 A 
HETATM    7  C   LIG     1      13.271  30.648  15.496  1.00  0.00     0.039 A 
HETATM    8  C   LIG     1      13.311  29.384  14.903  1.00  0.00     0.026 A 
ENDROOT
BRANCH   6   9
HETATM    9  O   LIG     1      14.348  32.827  15.919  1.00  0.00    -0.335 OA
BRANCH   9  10
HETATM   10  C   LIG     1      14.430  33.124  17.314  1.00  0.00     0.222 C 
HETATM   11  C   LIG     1      14.894  31.892  18.096  1.00  0.00     0.051 C 
BRANCH  10  12
HETATM   12  C   LIG     1      15.408  34.249  17.507  1.00  0.00     0.170 C 
HETATM   13  O   LIG     1      15.642  34.684  18.666  1.00  0.00    -0.648 OA
BRANCH  12  14
HETATM   14  O   LIG     1      16.058  34.823  16.419  1.00  0.00    -0.774 OA
HETATM   15  H   LIG     1      16.234  35.818  16.374  1.00  0.00     0.167 HD
ENDBRANCH  12  14
ENDBRANCH  10  12
ENDBRANCH   9  10
ENDBRANCH   6   9
TORSDOF 4
ENDMDL
MODEL 13
REMARK VINA RESULT:      -5.5      2.637      3.727
REMARK  4 active torsions:
REMARK  status: ('A' for Active; 'I' for Inactive)
REMARK    1  A    between atoms: C_6  and  O_7 
REMARK    2  A    between atoms: O_7  and  C_8 
REMARK    3  A    between atoms: C_8  and  C_10 
REMARK    4  A    between atoms: C_10  and  O_11 
ROOT
HETATM    1 CL   LIG     1      14.895  32.771  19.800  1.00  0.00    -0.084 Cl
HETATM    2  C   LIG     1      15.780  34.104  20.520  1.00  0.00     0.034 A 
HETATM    3  C   LIG     1      16.095  34.081  21.881  1.00  0.00     0.033 A 
HETATM    4  C   LIG     1      16.803  35.144  22.465  1.00  0.00    -0.027 A 
HETATM    5  C   LIG     1      17.136  35.112  23.930  1.00  0.00     0.051 C 
HETATM    6  C   LIG     1      17.197  36.242  21.673  1.00  0.00     0.076 A 
HETATM    7  C   LIG     1      16.878  36.250  20.300  1.00  0.00     0.039 A 
HETATM    8  C   LIG     1      16.172  35.187  19.732  1.00  0.00     0.026 A 
ENDROOT
BRANCH   6   9
HETATM    9  O   LIG     1      17.909  37.290  22.287  1.00  0.00    -0.335 OA
BRANCH   9  10
HETATM   10  C   LIG     1      17.339  38.435  22.925  1.00  0.00     0.222 C 
HETATM   11  C   LIG     1      15.833  38.502  22.658  1.00  0.00     0.051 C 
BRANCH  10  12
HETATM   12  C   LIG     1      17.592  38.334  24.402  1.00  0.00     0.170 C 
HETATM   13  O   LIG     1      16.629  38.414  25.210  1.00  0.00    -0.648 OA
BRANCH  12  14
HETATM   14  O   LIG     1      18.882  38.157  24.895  1.00  0.00    -0.774 OA
HETATM   15  H   LIG     1      19.648  37.897  24.286  1.00  0.00     0.167 HD
ENDBRANCH  12  14
ENDBRANCH  10  12
ENDBRANCH   9  10
ENDBRANCH   6   9
TORSDOF 4
ENDMDL
MODEL 14
REMARK VINA RESULT:      -5.5      3.484      5.182
REMARK  4 active torsions:
REMARK  status: ('A' for Active; 'I' for Inactive)
REMARK    1  A    between atoms: C_6  and  O_7 
REMARK    2  A    between atoms: O_7  and  C_8 
REMARK    3  A    between atoms: C_8  and  C_10 
REMARK    4  A    between atoms: C_10  and  O_11 
ROOT
HETATM    1 CL   LIG     1      14.465  33.305  21.497  1.00  0.00    -0.084 Cl
HETATM    2  C   LIG     1      15.554  34.667  21.308  1.00  0.00     0.034 A 
HETATM    3  C   LIG     1      15.970  35.390  22.429  1.00  0.00     0.033 A 
HETATM    4  C   LIG     1      16.842  36.483  22.287  1.00  0.00    -0.027 A 
HETATM    5  C   LIG     1      17.284  37.256  23.497  1.00  0.00     0.051 C 
HETATM    6  C   LIG     1      17.299  36.853  21.006  1.00  0.00     0.076 A 
HETATM    7  C   LIG     1      16.874  36.112  19.884  1.00  0.00     0.039 A 
HETATM    8  C   LIG     1      16.007  35.028  20.039  1.00  0.00     0.026 A 
ENDROOT
BRANCH   6   9
HETATM    9  O   LIG     1      18.174  37.949  20.896  1.00  0.00    -0.335 OA
BRANCH   9  10
HETATM   10  C   LIG     1      19.473  37.934  20.303  1.00  0.00     0.222 C 
HETATM   11  C   LIG     1      19.684  36.642  19.510  1.00  0.00     0.051 C 
BRANCH  10  12
HETATM   12  C   LIG     1      19.595  39.120  19.388  1.00  0.00     0.170 C 
HETATM   13  O   LIG     1      18.566  39.768  19.061  1.00  0.00    -0.648 OA
BRANCH  12  14
HETATM   14  O   LIG     1      20.835  39.511  18.890  1.00  0.00    -0.774 OA
HETATM   15  H   LIG     1      21.292  38.997  18.148  1.00  0.00     0.167 HD
ENDBRANCH  12  14
ENDBRANCH  10  12
ENDBRANCH   9  10
ENDBRANCH   6   9
TORSDOF 4
ENDMDL
MODEL 15
REMARK VINA RESULT:      -5.2      7.487      9.421
REMARK  4 active torsions:
REMARK  status: ('A' for Active; 'I' for Inactive)
REMARK    1  A    between atoms: C_6  and  O_7 
REMARK    2  A    between atoms: O_7  and  C_8 
REMARK    3  A    between atoms: C_8  and  C_10 
REMARK    4  A    between atoms: C_10  and  O_11 
ROOT
HETATM    1 CL   LIG     1      14.290  31.749  20.755  1.00  0.00    -0.084 Cl
HETATM    2  C   LIG     1      14.695  32.214  19.113  1.00  0.00     0.034 A 
HETATM    3  C   LIG     1      14.325  31.394  18.043  1.00  0.00     0.033 A 
HETATM    4  C   LIG     1      14.646  31.758  16.725  1.00  0.00    -0.027 A 
HETATM    5  C   LIG     1      14.246  30.870  15.580  1.00  0.00     0.051 C 
HETATM    6  C   LIG     1      15.347  32.957  16.479  1.00  0.00     0.076 A 
HETATM    7  C   LIG     1      15.710  33.776  17.568  1.00  0.00     0.039 A 
HETATM    8  C   LIG     1      15.385  33.403  18.874  1.00  0.00     0.026 A 
ENDROOT
BRANCH   6   9
HETATM    9  O   LIG     1      15.650  33.295  15.148  1.00  0.00    -0.335 OA
BRANCH   9  10
HETATM   10  C   LIG     1      16.892  33.061  14.481  1.00  0.00     0.222 C 
HETATM   11  C   LIG     1      16.658  32.328  13.157  1.00  0.00     0.051 C 
BRANCH  10  12
HETATM   12  C   LIG     1      17.553  34.386  14.221  1.00  0.00     0.170 C 
HETATM   13  O   LIG     1      18.360  34.506  13.262  1.00  0.00    -0.648 OA
BRANCH  12  14
HETATM   14  O   LIG     1      17.287  35.486  15.032  1.00  0.00    -0.774 OA
HETATM   15  H   LIG     1      17.775  36.363  14.907  1.00  0.00     0.167 HD
ENDBRANCH  12  14
ENDBRANCH  10  12
ENDBRANCH   9  10
ENDBRANCH   6   9
TORSDOF 4
ENDMDL
MODEL 16
REMARK VINA RESULT:      -4.6      8.589     10.626
REMARK  4 active torsions:
REMARK  status: ('A' for Active; 'I' for Inactive)
REMARK    1  A    between atoms: C_6  and  O_7 
REMARK    2  A    between atoms: O_7  and  C_8 
REMARK    3  A    between atoms: C_8  and  C_10 
REMARK    4  A    between atoms: C_10  and  O_11 
ROOT
HETATM    1 CL   LIG     1      12.216  28.196  13.714  1.00  0.00    -0.084 Cl
HETATM    2  C   LIG     1      13.270  29.416  14.407  1.00  0.00     0.034 A 
HETATM    3  C   LIG     1      14.372  29.880  13.684  1.00  0.00     0.033 A 
HETATM    4  C   LIG     1      15.221  30.855  14.232  1.00  0.00    -0.027 A 
HETATM    5  C   LIG     1      16.405  31.348  13.449  1.00  0.00     0.051 C 
HETATM    6  C   LIG     1      14.961  31.369  15.519  1.00  0.00     0.076 A 
HETATM    7  C   LIG     1      13.842  30.895  16.235  1.00  0.00     0.039 A 
HETATM    8  C   LIG     1      13.006  29.924  15.679  1.00  0.00     0.026 A 
ENDROOT
BRANCH   6   9
HETATM    9  O   LIG     1      15.827  32.348  16.039  1.00  0.00    -0.335 OA
BRANCH   9  10
HETATM   10  C   LIG     1      15.701  33.761  15.868  1.00  0.00     0.222 C 
HETATM   11  C   LIG     1      15.313  34.427  17.191  1.00  0.00     0.051 C 
BRANCH  10  12
HETATM   12  C   LIG     1      17.017  34.305  15.390  1.00  0.00     0.170 C 
HETATM   13  O   LIG     1      18.025  33.551  15.335  1.00  0.00    -0.648 OA
BRANCH  12  14
HETATM   14  O   LIG     1      17.142  35.638  15.009  1.00  0.00    -0.774 OA
HETATM   15  H   LIG     1      17.325  36.366  15.688  1.00  0.00     0.167 HD
ENDBRANCH  12  14
ENDBRANCH  10  12
ENDBRANCH   9  10
ENDBRANCH   6   9
TORSDOF 4
ENDMDL
MODEL 17
REMARK VINA RESULT:      -4.6     16.778     17.776
REMARK  4 active torsions:
REMARK  status: ('A' for Active; 'I' for Inactive)
REMARK    1  A    between atoms: C_6  and  O_7 
REMARK    2  A    between atoms: O_7  and  C_8 
REMARK    3  A    between atoms: C_8  and  C_10 
REMARK    4  A    between atoms: C_10  and  O_11 
ROOT
HETATM    1 CL   LIG     1      26.782  32.110  38.123  1.00  0.00    -0.084 Cl
HETATM    2  C   LIG     1      27.128  31.290  36.611  1.00  0.00     0.034 A 
HETATM    3  C   LIG     1      28.413  31.345  36.064  1.00  0.00     0.033 A 
HETATM    4  C   LIG     1      28.698  30.692  34.854  1.00  0.00    -0.027 A 
HETATM    5  C   LIG     1      30.083  30.757  34.272  1.00  0.00     0.051 C 
HETATM    6  C   LIG     1      27.683  29.977  34.186  1.00  0.00     0.076 A 
HETATM    7  C   LIG     1      26.393  29.926  34.751  1.00  0.00     0.039 A 
HETATM    8  C   LIG     1      26.121  30.581  35.955  1.00  0.00     0.026 A 
ENDROOT
BRANCH   6   9
HETATM    9  O   LIG     1      28.002  29.330  32.978  1.00  0.00    -0.335 OA
BRANCH   9  10
HETATM   10  C   LIG     1      28.066  27.918  32.770  1.00  0.00     0.222 C 
HETATM   11  C   LIG     1      28.150  27.183  34.110  1.00  0.00     0.051 C 
BRANCH  10  12
HETATM   12  C   LIG     1      26.833  27.487  32.027  1.00  0.00     0.170 C 
HETATM   13  O   LIG     1      26.859  27.391  30.772  1.00  0.00    -0.648 OA
BRANCH  12  14
HETATM   14  O   LIG     1      25.656  27.196  32.710  1.00  0.00    -0.774 OA
HETATM   15  H   LIG     1      25.039  26.453  32.406  1.00  0.00     0.167 HD
ENDBRANCH  12  14
ENDBRANCH  10  12
ENDBRANCH   9  10
ENDBRANCH   6   9
TORSDOF 4
ENDMDL
