MODEL 1
REMARK VINA RESULT:      -5.8      0.000      0.000
REMARK  2 active torsions:
REMARK  status: ('A' for Active; 'I' for Inactive)
REMARK    1  A    between atoms: C_2  and  C_3 
REMARK    2  A    between atoms: C_2  and  O_9 
ROOT
HETATM    1  C   LIG     1      17.458  38.165  21.986  1.00  0.00     0.057 A 
HETATM    2  C   LIG     1      18.284  39.240  21.619  1.00  0.00     0.020 A 
HETATM    3  C   LIG     1      19.148  39.119  20.530  1.00  0.00     0.020 A 
HETATM    4  C   LIG     1      19.181  37.923  19.811  1.00  0.00     0.116 A 
HETATM    5  N   LIG     1      18.377  36.889  20.175  1.00  0.00    -0.272 NA
HETATM    6  C   LIG     1      17.527  36.980  21.232  1.00  0.00     0.133 A 
ENDROOT
BRANCH   1   7
HETATM    7  C   LIG     1      16.535  38.272  23.138  1.00  0.00     0.294 C 
HETATM    8  O   LIG     1      15.316  37.976  23.001  1.00  0.00    -0.259 OA
BRANCH   7   9
HETATM    9  O   LIG     1      17.016  38.705  24.379  1.00  0.00    -0.322 OA
HETATM   10  C   LIG     1      17.367  37.804  25.421  1.00  0.00     0.213 C 
ENDBRANCH   7   9
ENDBRANCH   1   7
TORSDOF 2
ENDMDL
MODEL 2
REMARK VINA RESULT:      -5.7      2.630      4.529
REMARK  2 active torsions:
REMARK  status: ('A' for Active; 'I' for Inactive)
REMARK    1  A    between atoms: C_2  and  C_3 
REMARK    2  A    between atoms: C_2  and  O_9 
ROOT
HETATM    1  C   LIG     1      17.120  36.917  24.294  1.00  0.00     0.057 A 
HETATM    2  C   LIG     1      17.122  35.514  24.373  1.00  0.00     0.020 A 
HETATM    3  C   LIG     1      17.652  34.877  25.496  1.00  0.00     0.020 A 
HETATM    4  C   LIG     1      18.176  35.646  26.536  1.00  0.00     0.116 A 
HETATM    5  N   LIG     1      18.168  37.002  26.449  1.00  0.00    -0.272 NA
HETATM    6  C   LIG     1      17.659  37.648  25.366  1.00  0.00     0.133 A 
ENDROOT
BRANCH   1   7
HETATM    7  C   LIG     1      16.563  37.613  23.112  1.00  0.00     0.294 C 
HETATM    8  O   LIG     1      15.375  38.038  23.129  1.00  0.00    -0.259 OA
BRANCH   7   9
HETATM    9  O   LIG     1      17.357  37.796  21.974  1.00  0.00    -0.322 OA
HETATM   10  C   LIG     1      18.251  38.892  21.831  1.00  0.00     0.213 C 
ENDBRANCH   7   9
ENDBRANCH   1   7
TORSDOF 2
ENDMDL
MODEL 3
REMARK VINA RESULT:      -5.6      3.055      4.606
REMARK  2 active torsions:
REMARK  status: ('A' for Active; 'I' for Inactive)
REMARK    1  A    between atoms: C_2  and  C_3 
REMARK    2  A    between atoms: C_2  and  O_9 
ROOT
HETATM    1  C   LIG     1      18.584  38.320  20.223  1.00  0.00     0.057 A 
HETATM    2  C   LIG     1      18.025  38.879  21.385  1.00  0.00     0.020 A 
HETATM    3  C   LIG     1      17.298  38.078  22.267  1.00  0.00     0.020 A 
HETATM    4  C   LIG     1      17.134  36.721  21.984  1.00  0.00     0.116 A 
HETATM    5  N   LIG     1      17.680  36.191  20.857  1.00  0.00    -0.272 NA
HETATM    6  C   LIG     1      18.392  36.949  19.981  1.00  0.00     0.133 A 
ENDROOT
BRANCH   1   7
HETATM    7  C   LIG     1      19.359  39.152  19.275  1.00  0.00     0.294 C 
HETATM    8  O   LIG     1      20.613  39.233  19.383  1.00  0.00    -0.259 OA
BRANCH   7   9
HETATM    9  O   LIG     1      18.696  39.850  18.259  1.00  0.00    -0.322 OA
HETATM   10  C   LIG     1      18.823  39.508  16.885  1.00  0.00     0.213 C 
ENDBRANCH   7   9
ENDBRANCH   1   7
TORSDOF 2
ENDMDL
MODEL 4
REMARK VINA RESULT:      -5.5      3.050      4.737
REMARK  2 active torsions:
REMARK  status: ('A' for Active; 'I' for Inactive)
REMARK    1  A    between atoms: C_2  and  C_3 
REMARK    2  A    between atoms: C_2  and  O_9 
ROOT
HETATM    1  C   LIG     1      17.120  36.571  23.931  1.00  0.00     0.057 A 
HETATM    2  C   LIG     1      17.214  35.230  24.340  1.00  0.00     0.020 A 
HETATM    3  C   LIG     1      17.630  34.921  25.636  1.00  0.00     0.020 A 
HETATM    4  C   LIG     1      17.948  35.954  26.518  1.00  0.00     0.116 A 
HETATM    5  N   LIG     1      17.852  37.248  26.113  1.00  0.00    -0.272 NA
HETATM    6  C   LIG     1      17.451  37.577  24.856  1.00  0.00     0.133 A 
ENDROOT
BRANCH   1   7
HETATM    7  C   LIG     1      16.681  36.921  22.562  1.00  0.00     0.294 C 
HETATM    8  O   LIG     1      17.505  37.405  21.738  1.00  0.00    -0.259 OA
BRANCH   7   9
HETATM    9  O   LIG     1      15.349  36.716  22.183  1.00  0.00    -0.322 OA
HETATM   10  C   LIG     1      14.955  35.674  21.300  1.00  0.00     0.213 C 
ENDBRANCH   7   9
ENDBRANCH   1   7
TORSDOF 2
ENDMDL
MODEL 5
REMARK VINA RESULT:      -5.3      8.243      9.395
REMARK  2 active torsions:
REMARK  status: ('A' for Active; 'I' for Inactive)
REMARK    1  A    between atoms: C_2  and  C_3 
REMARK    2  A    between atoms: C_2  and  O_9 
ROOT
HETATM    1  C   LIG     1      15.189  32.057  15.708  1.00  0.00     0.057 A 
HETATM    2  C   LIG     1      14.299  30.970  15.669  1.00  0.00     0.020 A 
HETATM    3  C   LIG     1      14.324  30.083  14.592  1.00  0.00     0.020 A 
HETATM    4  C   LIG     1      15.241  30.286  13.559  1.00  0.00     0.116 A 
HETATM    5  N   LIG     1      16.097  31.340  13.608  1.00  0.00    -0.272 NA
HETATM    6  C   LIG     1      16.094  32.219  14.645  1.00  0.00     0.133 A 
ENDROOT
BRANCH   1   7
HETATM    7  C   LIG     1      15.179  33.009  16.841  1.00  0.00     0.294 C 
HETATM    8  O   LIG     1      14.698  34.166  16.691  1.00  0.00    -0.259 OA
BRANCH   7   9
HETATM    9  O   LIG     1      15.706  32.624  18.079  1.00  0.00    -0.322 OA
HETATM   10  C   LIG     1      14.902  32.084  19.120  1.00  0.00     0.213 C 
ENDBRANCH   7   9
ENDBRANCH   1   7
TORSDOF 2
ENDMDL
MODEL 6
REMARK VINA RESULT:      -5.3      1.706      2.773
REMARK  2 active torsions:
REMARK  status: ('A' for Active; 'I' for Inactive)
REMARK    1  A    between atoms: C_2  and  C_3 
REMARK    2  A    between atoms: C_2  and  O_9 
ROOT
HETATM    1  C   LIG     1      16.832  37.275  21.992  1.00  0.00     0.057 A 
HETATM    2  C   LIG     1      15.529  36.778  22.169  1.00  0.00     0.020 A 
HETATM    3  C   LIG     1      15.055  35.749  21.355  1.00  0.00     0.020 A 
HETATM    4  C   LIG     1      15.886  35.220  20.366  1.00  0.00     0.116 A 
HETATM    5  N   LIG     1      17.144  35.708  20.203  1.00  0.00    -0.272 NA
HETATM    6  C   LIG     1      17.631  36.710  20.983  1.00  0.00     0.133 A 
ENDROOT
BRANCH   1   7
HETATM    7  C   LIG     1      17.354  38.365  22.845  1.00  0.00     0.294 C 
HETATM    8  O   LIG     1      18.296  39.096  22.432  1.00  0.00    -0.259 OA
BRANCH   7   9
HETATM    9  O   LIG     1      16.801  38.584  24.112  1.00  0.00    -0.322 OA
HETATM   10  C   LIG     1      17.300  37.955  25.285  1.00  0.00     0.213 C 
ENDBRANCH   7   9
ENDBRANCH   1   7
TORSDOF 2
ENDMDL
MODEL 7
REMARK VINA RESULT:      -5.2      8.264      9.703
REMARK  2 active torsions:
REMARK  status: ('A' for Active; 'I' for Inactive)
REMARK    1  A    between atoms: C_2  and  C_3 
REMARK    2  A    between atoms: C_2  and  O_9 
ROOT
HETATM    1  C   LIG     1      15.111  32.359  15.974  1.00  0.00     0.057 A 
HETATM    2  C   LIG     1      14.997  31.287  15.073  1.00  0.00     0.020 A 
HETATM    3  C   LIG     1      13.938  30.385  15.187  1.00  0.00     0.020 A 
HETATM    4  C   LIG     1      12.995  30.561  16.202  1.00  0.00     0.116 A 
HETATM    5  N   LIG     1      13.115  31.602  17.067  1.00  0.00    -0.272 NA
HETATM    6  C   LIG     1      14.137  32.494  16.979  1.00  0.00     0.133 A 
ENDROOT
BRANCH   1   7
HETATM    7  C   LIG     1      16.226  33.327  15.871  1.00  0.00     0.294 C 
HETATM    8  O   LIG     1      16.060  34.525  16.230  1.00  0.00    -0.259 OA
BRANCH   7   9
HETATM    9  O   LIG     1      17.465  32.910  15.371  1.00  0.00    -0.322 OA
HETATM   10  C   LIG     1      18.021  33.427  14.169  1.00  0.00     0.213 C 
ENDBRANCH   7   9
ENDBRANCH   1   7
TORSDOF 2
ENDMDL
MODEL 8
REMARK VINA RESULT:      -5.0      2.143      3.404
REMARK  2 active torsions:
REMARK  status: ('A' for Active; 'I' for Inactive)
REMARK    1  A    between atoms: C_2  and  C_3 
REMARK    2  A    between atoms: C_2  and  O_9 
ROOT
HETATM    1  C   LIG     1      16.461  36.796  22.744  1.00  0.00     0.057 A 
HETATM    2  C   LIG     1      17.188  35.632  22.440  1.00  0.00     0.020 A 
HETATM    3  C   LIG     1      16.639  34.662  21.600  1.00  0.00     0.020 A 
HETATM    4  C   LIG     1      15.364  34.860  21.066  1.00  0.00     0.116 A 
HETATM    5  N   LIG     1      14.671  35.990  21.366  1.00  0.00    -0.272 NA
HETATM    6  C   LIG     1      15.182  36.950  22.182  1.00  0.00     0.133 A 
ENDROOT
BRANCH   1   7
HETATM    7  C   LIG     1      17.026  37.836  23.632  1.00  0.00     0.294 C 
HETATM    8  O   LIG     1      16.480  38.084  24.742  1.00  0.00    -0.259 OA
BRANCH   7   9
HETATM    9  O   LIG     1      18.165  38.546  23.236  1.00  0.00    -0.322 OA
HETATM   10  C   LIG     1      18.273  39.180  21.968  1.00  0.00     0.213 C 
ENDBRANCH   7   9
ENDBRANCH   1   7
TORSDOF 2
ENDMDL
MODEL 9
REMARK VINA RESULT:      -5.0      2.826      4.092
REMARK  2 active torsions:
REMARK  status: ('A' for Active; 'I' for Inactive)
REMARK    1  A    between atoms: C_2  and  C_3 
REMARK    2  A    between atoms: C_2  and  O_9 
ROOT
HETATM    1  C   LIG     1      17.838  37.548  21.081  1.00  0.00     0.057 A 
HETATM    2  C   LIG     1      17.822  38.734  21.835  1.00  0.00     0.020 A 
HETATM    3  C   LIG     1      17.143  38.780  23.053  1.00  0.00     0.020 A 
HETATM    4  C   LIG     1      16.483  37.640  23.513  1.00  0.00     0.116 A 
HETATM    5  N   LIG     1      16.506  36.498  22.776  1.00  0.00    -0.272 NA
HETATM    6  C   LIG     1      17.159  36.426  21.586  1.00  0.00     0.133 A 
ENDROOT
BRANCH   1   7
HETATM    7  C   LIG     1      18.553  37.478  19.787  1.00  0.00     0.294 C 
HETATM    8  O   LIG     1      18.609  36.388  19.154  1.00  0.00    -0.259 OA
BRANCH   7   9
HETATM    9  O   LIG     1      19.166  38.623  19.267  1.00  0.00    -0.322 OA
HETATM   10  C   LIG     1      20.567  38.849  19.353  1.00  0.00     0.213 C 
ENDBRANCH   7   9
ENDBRANCH   1   7
TORSDOF 2
ENDMDL
MODEL 10
REMARK VINA RESULT:      -5.0      8.923     10.318
REMARK  2 active torsions:
REMARK  status: ('A' for Active; 'I' for Inactive)
REMARK    1  A    between atoms: C_2  and  C_3 
REMARK    2  A    between atoms: C_2  and  O_9 
ROOT
HETATM    1  C   LIG     1      15.315  31.831  15.267  1.00  0.00     0.057 A 
HETATM    2  C   LIG     1      14.244  30.993  15.620  1.00  0.00     0.020 A 
HETATM    3  C   LIG     1      13.722  31.031  16.914  1.00  0.00     0.020 A 
HETATM    4  C   LIG     1      14.274  31.907  17.850  1.00  0.00     0.116 A 
HETATM    5  N   LIG     1      15.310  32.713  17.497  1.00  0.00    -0.272 NA
HETATM    6  C   LIG     1      15.837  32.696  16.244  1.00  0.00     0.133 A 
ENDROOT
BRANCH   1   7
HETATM    7  C   LIG     1      15.883  31.807  13.901  1.00  0.00     0.294 C 
HETATM    8  O   LIG     1      16.002  30.713  13.284  1.00  0.00    -0.259 OA
BRANCH   7   9
HETATM    9  O   LIG     1      16.289  33.001  13.294  1.00  0.00    -0.322 OA
HETATM   10  C   LIG     1      17.657  33.349  13.125  1.00  0.00     0.213 C 
ENDBRANCH   7   9
ENDBRANCH   1   7
TORSDOF 2
ENDMDL
MODEL 11
REMARK VINA RESULT:      -5.0      9.769     11.178
REMARK  2 active torsions:
REMARK  status: ('A' for Active; 'I' for Inactive)
REMARK    1  A    between atoms: C_2  and  C_3 
REMARK    2  A    between atoms: C_2  and  O_9 
ROOT
HETATM    1  C   LIG     1      14.526  30.821  15.237  1.00  0.00     0.057 A 
HETATM    2  C   LIG     1      13.753  31.088  16.379  1.00  0.00     0.020 A 
HETATM    3  C   LIG     1      13.962  32.259  17.109  1.00  0.00     0.020 A 
HETATM    4  C   LIG     1      14.943  33.160  16.692  1.00  0.00     0.116 A 
HETATM    5  N   LIG     1      15.685  32.892  15.585  1.00  0.00    -0.272 NA
HETATM    6  C   LIG     1      15.502  31.758  14.856  1.00  0.00     0.133 A 
ENDROOT
BRANCH   1   7
HETATM    7  C   LIG     1      14.321  29.585  14.449  1.00  0.00     0.294 C 
HETATM    8  O   LIG     1      13.152  29.168  14.220  1.00  0.00    -0.259 OA
BRANCH   7   9
HETATM    9  O   LIG     1      15.426  28.879  13.959  1.00  0.00    -0.322 OA
HETATM   10  C   LIG     1      15.335  27.538  13.496  1.00  0.00     0.213 C 
ENDBRANCH   7   9
ENDBRANCH   1   7
TORSDOF 2
ENDMDL
MODEL 12
REMARK VINA RESULT:      -4.9      9.632     10.676
REMARK  2 active torsions:
REMARK  status: ('A' for Active; 'I' for Inactive)
REMARK    1  A    between atoms: C_2  and  C_3 
REMARK    2  A    between atoms: C_2  and  O_9 
ROOT
HETATM    1  C   LIG     1      15.706  31.763  14.781  1.00  0.00     0.057 A 
HETATM    2  C   LIG     1      14.916  31.902  15.936  1.00  0.00     0.020 A 
HETATM    3  C   LIG     1      13.816  31.068  16.137  1.00  0.00     0.020 A 
HETATM    4  C   LIG     1      13.510  30.096  15.182  1.00  0.00     0.116 A 
HETATM    5  N   LIG     1      14.281  29.970  14.070  1.00  0.00    -0.272 NA
HETATM    6  C   LIG     1      15.358  30.771  13.849  1.00  0.00     0.133 A 
ENDROOT
BRANCH   1   7
HETATM    7  C   LIG     1      16.876  32.638  14.549  1.00  0.00     0.294 C 
HETATM    8  O   LIG     1      17.899  32.534  15.281  1.00  0.00    -0.259 OA
BRANCH   7   9
HETATM    9  O   LIG     1      16.846  33.583  13.517  1.00  0.00    -0.322 OA
HETATM   10  C   LIG     1      18.016  34.000  12.825  1.00  0.00     0.213 C 
ENDBRANCH   7   9
ENDBRANCH   1   7
TORSDOF 2
ENDMDL
MODEL 13
REMARK VINA RESULT:      -4.6      7.413      8.567
REMARK  2 active torsions:
REMARK  status: ('A' for Active; 'I' for Inactive)
REMARK    1  A    between atoms: C_2  and  C_3 
REMARK    2  A    between atoms: C_2  and  O_9 
ROOT
HETATM    1  C   LIG     1      14.819  31.844  17.156  1.00  0.00     0.057 A 
HETATM    2  C   LIG     1      13.851  30.931  16.703  1.00  0.00     0.020 A 
HETATM    3  C   LIG     1      13.830  30.540  15.363  1.00  0.00     0.020 A 
HETATM    4  C   LIG     1      14.778  31.063  14.482  1.00  0.00     0.116 A 
HETATM    5  N   LIG     1      15.710  31.945  14.931  1.00  0.00    -0.272 NA
HETATM    6  C   LIG     1      15.752  32.343  16.231  1.00  0.00     0.133 A 
ENDROOT
BRANCH   1   7
HETATM    7  C   LIG     1      14.859  32.271  18.572  1.00  0.00     0.294 C 
HETATM    8  O   LIG     1      14.328  31.555  19.464  1.00  0.00    -0.259 OA
BRANCH   7   9
HETATM    9  O   LIG     1      15.486  33.473  18.919  1.00  0.00    -0.322 OA
HETATM   10  C   LIG     1      15.631  33.901  20.267  1.00  0.00     0.213 C 
ENDBRANCH   7   9
ENDBRANCH   1   7
TORSDOF 2
ENDMDL
MODEL 14
REMARK VINA RESULT:      -4.5      9.139     10.490
REMARK  2 active torsions:
REMARK  status: ('A' for Active; 'I' for Inactive)
REMARK    1  A    between atoms: C_2  and  C_3 
REMARK    2  A    between atoms: C_2  and  O_9 
ROOT
HETATM    1  C   LIG     1      15.701  31.785  14.706  1.00  0.00     0.057 A 
HETATM    2  C   LIG     1      16.216  32.080  13.433  1.00  0.00     0.020 A 
HETATM    3  C   LIG     1      17.167  33.090  13.279  1.00  0.00     0.020 A 
HETATM    4  C   LIG     1      17.599  33.801  14.400  1.00  0.00     0.116 A 
HETATM    5  N   LIG     1      17.094  33.507  15.627  1.00  0.00    -0.272 NA
HETATM    6  C   LIG     1      16.167  32.528  15.805  1.00  0.00     0.133 A 
ENDROOT
BRANCH   1   7
HETATM    7  C   LIG     1      14.693  30.717  14.891  1.00  0.00     0.294 C 
HETATM    8  O   LIG     1      14.018  30.662  15.956  1.00  0.00    -0.259 OA
BRANCH   7   9
HETATM    9  O   LIG     1      14.490  29.768  13.883  1.00  0.00    -0.322 OA
HETATM   10  C   LIG     1      15.207  28.542  13.828  1.00  0.00     0.213 C 
ENDBRANCH   7   9
ENDBRANCH   1   7
TORSDOF 2
ENDMDL
MODEL 15
REMARK VINA RESULT:      -4.4      8.936     10.079
REMARK  2 active torsions:
REMARK  status: ('A' for Active; 'I' for Inactive)
REMARK    1  A    between atoms: C_2  and  C_3 
REMARK    2  A    between atoms: C_2  and  O_9 
ROOT
HETATM    1  C   LIG     1      15.880  32.033  14.545  1.00  0.00     0.057 A 
HETATM    2  C   LIG     1      16.642  32.361  13.410  1.00  0.00     0.020 A 
HETATM    3  C   LIG     1      17.446  33.501  13.411  1.00  0.00     0.020 A 
HETATM    4  C   LIG     1      17.486  34.310  14.548  1.00  0.00     0.116 A 
HETATM    5  N   LIG     1      16.746  33.983  15.640  1.00  0.00    -0.272 NA
HETATM    6  C   LIG     1      15.953  32.878  15.666  1.00  0.00     0.133 A 
ENDROOT
BRANCH   1   7
HETATM    7  C   LIG     1      15.022  30.828  14.564  1.00  0.00     0.294 C 
HETATM    8  O   LIG     1      14.905  30.117  13.528  1.00  0.00    -0.259 OA
BRANCH   7   9
HETATM    9  O   LIG     1      14.337  30.479  15.734  1.00  0.00    -0.322 OA
HETATM   10  C   LIG     1      12.950  30.731  15.916  1.00  0.00     0.213 C 
ENDBRANCH   7   9
ENDBRANCH   1   7
TORSDOF 2
ENDMDL
MODEL 16
REMARK VINA RESULT:      -4.4      9.872     11.136
REMARK  2 active torsions:
REMARK  status: ('A' for Active; 'I' for Inactive)
REMARK    1  A    between atoms: C_2  and  C_3 
REMARK    2  A    between atoms: C_2  and  O_9 
ROOT
HETATM    1  C   LIG     1      15.065  31.067  14.579  1.00  0.00     0.057 A 
HETATM    2  C   LIG     1      15.385  31.905  15.662  1.00  0.00     0.020 A 
HETATM    3  C   LIG     1      16.382  32.871  15.529  1.00  0.00     0.020 A 
HETATM    4  C   LIG     1      17.056  32.998  14.312  1.00  0.00     0.116 A 
HETATM    5  N   LIG     1      16.738  32.183  13.272  1.00  0.00    -0.272 NA
HETATM    6  C   LIG     1      15.770  31.233  13.375  1.00  0.00     0.133 A 
ENDROOT
BRANCH   1   7
HETATM    7  C   LIG     1      14.010  30.036  14.699  1.00  0.00     0.294 C 
HETATM    8  O   LIG     1      12.954  30.283  15.344  1.00  0.00    -0.259 OA
BRANCH   7   9
HETATM    9  O   LIG     1      14.188  28.785  14.097  1.00  0.00    -0.322 OA
HETATM   10  C   LIG     1      13.117  27.871  13.898  1.00  0.00     0.213 C 
ENDBRANCH   7   9
ENDBRANCH   1   7
TORSDOF 2
ENDMDL
MODEL 17
REMARK VINA RESULT:      -4.3      7.573      8.583
REMARK  2 active torsions:
REMARK  status: ('A' for Active; 'I' for Inactive)
REMARK    1  A    between atoms: C_2  and  C_3 
REMARK    2  A    between atoms: C_2  and  O_9 
ROOT
HETATM    1  C   LIG     1      15.894  32.596  15.633  1.00  0.00     0.057 A 
HETATM    2  C   LIG     1      16.845  33.624  15.522  1.00  0.00     0.020 A 
HETATM    3  C   LIG     1      17.560  33.792  14.335  1.00  0.00     0.020 A 
HETATM    4  C   LIG     1      17.319  32.931  13.263  1.00  0.00     0.116 A 
HETATM    5  N   LIG     1      16.396  31.940  13.381  1.00  0.00    -0.272 NA
HETATM    6  C   LIG     1      15.686  31.754  14.527  1.00  0.00     0.133 A 
ENDROOT
BRANCH   1   7
HETATM    7  C   LIG     1      15.126  32.401  16.883  1.00  0.00     0.294 C 
HETATM    8  O   LIG     1      13.970  31.895  16.843  1.00  0.00    -0.259 OA
BRANCH   7   9
HETATM    9  O   LIG     1      15.683  32.780  18.110  1.00  0.00    -0.322 OA
HETATM   10  C   LIG     1      15.302  32.183  19.342  1.00  0.00     0.213 C 
ENDBRANCH   7   9
ENDBRANCH   1   7
TORSDOF 2
ENDMDL
MODEL 18
REMARK VINA RESULT:      -4.3     10.631     11.943
REMARK  2 active torsions:
REMARK  status: ('A' for Active; 'I' for Inactive)
REMARK    1  A    between atoms: C_2  and  C_3 
REMARK    2  A    between atoms: C_2  and  O_9 
ROOT
HETATM    1  C   LIG     1      14.736  29.928  14.464  1.00  0.00     0.057 A 
HETATM    2  C   LIG     1      15.570  28.894  14.008  1.00  0.00     0.020 A 
HETATM    3  C   LIG     1      15.019  27.681  13.592  1.00  0.00     0.020 A 
HETATM    4  C   LIG     1      13.634  27.508  13.632  1.00  0.00     0.116 A 
HETATM    5  N   LIG     1      12.837  28.516  14.074  1.00  0.00    -0.272 NA
HETATM    6  C   LIG     1      13.348  29.707  14.486  1.00  0.00     0.133 A 
ENDROOT
BRANCH   1   7
HETATM    7  C   LIG     1      15.300  31.222  14.909  1.00  0.00     0.294 C 
HETATM    8  O   LIG     1      14.722  31.887  15.812  1.00  0.00    -0.259 OA
BRANCH   7   9
HETATM    9  O   LIG     1      16.476  31.707  14.326  1.00  0.00    -0.322 OA
HETATM   10  C   LIG     1      17.215  32.789  14.876  1.00  0.00     0.213 C 
ENDBRANCH   7   9
ENDBRANCH   1   7
TORSDOF 2
ENDMDL
MODEL 19
REMARK VINA RESULT:      -4.2      2.456      2.991
REMARK  2 active torsions:
REMARK  status: ('A' for Active; 'I' for Inactive)
REMARK    1  A    between atoms: C_2  and  C_3 
REMARK    2  A    between atoms: C_2  and  O_9 
ROOT
HETATM    1  C   LIG     1      16.859  36.683  22.279  1.00  0.00     0.057 A 
HETATM    2  C   LIG     1      17.876  37.092  21.400  1.00  0.00     0.020 A 
HETATM    3  C   LIG     1      18.193  38.446  21.275  1.00  0.00     0.020 A 
HETATM    4  C   LIG     1      17.491  39.385  22.033  1.00  0.00     0.116 A 
HETATM    5  N   LIG     1      16.510  38.979  22.881  1.00  0.00    -0.272 NA
HETATM    6  C   LIG     1      16.181  37.666  23.020  1.00  0.00     0.133 A 
ENDROOT
BRANCH   1   7
HETATM    7  C   LIG     1      16.508  35.253  22.426  1.00  0.00     0.294 C 
HETATM    8  O   LIG     1      16.188  34.573  21.413  1.00  0.00    -0.259 OA
BRANCH   7   9
HETATM    9  O   LIG     1      16.532  34.656  23.692  1.00  0.00    -0.322 OA
HETATM   10  C   LIG     1      17.413  35.081  24.724  1.00  0.00     0.213 C 
ENDBRANCH   7   9
ENDBRANCH   1   7
TORSDOF 2
ENDMDL
MODEL 20
REMARK VINA RESULT:      -3.9      9.412     10.523
REMARK  2 active torsions:
REMARK  status: ('A' for Active; 'I' for Inactive)
REMARK    1  A    between atoms: C_2  and  C_3 
REMARK    2  A    between atoms: C_2  and  O_9 
ROOT
HETATM    1  C   LIG     1      17.368  33.199  13.610  1.00  0.00     0.057 A 
HETATM    2  C   LIG     1      17.201  33.535  14.964  1.00  0.00     0.020 A 
HETATM    3  C   LIG     1      16.288  32.833  15.752  1.00  0.00     0.020 A 
HETATM    4  C   LIG     1      15.546  31.797  15.182  1.00  0.00     0.116 A 
HETATM    5  N   LIG     1      15.716  31.480  13.872  1.00  0.00    -0.272 NA
HETATM    6  C   LIG     1      16.599  32.148  13.082  1.00  0.00     0.133 A 
ENDROOT
BRANCH   1   7
HETATM    7  C   LIG     1      18.332  33.930  12.757  1.00  0.00     0.294 C 
HETATM    8  O   LIG     1      17.972  34.976  12.149  1.00  0.00    -0.259 OA
BRANCH   7   9
HETATM    9  O   LIG     1      19.643  33.458  12.624  1.00  0.00    -0.322 OA
HETATM   10  C   LIG     1      20.768  34.325  12.572  1.00  0.00     0.213 C 
ENDBRANCH   7   9
ENDBRANCH   1   7
TORSDOF 2
ENDMDL
