REMARK  2 active torsions:
REMARK  status: ('A' for Active; 'I' for Inactive)
REMARK    1  A    between atoms: C_2  and  C_3 
REMARK    2  A    between atoms: C_2  and  O_9 
ROOT
HETATM    1  C   LIG     1      -0.351   0.016   0.190  1.00  0.00     0.057 A 
HETATM    2  C   LIG     1      -1.125  -0.158   1.350  1.00  0.00     0.020 A 
HETATM    3  C   LIG     1      -2.493   0.117   1.327  1.00  0.00     0.020 A 
HETATM    4  C   LIG     1      -3.082   0.564   0.143  1.00  0.00     0.116 A 
HETATM    5  N   LIG     1      -2.324   0.728  -0.973  1.00  0.00    -0.272 NA
HETATM    6  C   LIG     1      -0.989   0.468  -0.978  1.00  0.00     0.133 A 
ENDROOT
BRANCH   1   7
HETATM    7  C   LIG     1       1.101  -0.270   0.193  1.00  0.00     0.294 C 
HETATM    8  O   LIG     1       1.664  -0.675   1.247  1.00  0.00    -0.259 OA
BRANCH   7   9
HETATM    9  O   LIG     1       1.849  -0.089  -0.976  1.00  0.00    -0.322 OA
HETATM   10  C   LIG     1       3.246  -0.345  -1.040  1.00  0.00     0.213 C 
ENDBRANCH   7   9
ENDBRANCH   1   7
TORSDOF 2
