MODEL 1
REMARK VINA RESULT:      -6.9      0.000      0.000
REMARK  4 active torsions:
REMARK  status: ('A' for Active; 'I' for Inactive)
REMARK    1  A    between atoms: C_2  and  C_4 
REMARK    2  A    between atoms: C_2  and  O_3 
REMARK    3  A    between atoms: C_4  and  O_5 
REMARK    4  A    between atoms: O_5  and  C_6 
ROOT
HETATM    1  C   LIG     1      17.515  37.680  22.206  1.00  0.00     0.092 A 
HETATM    2  C   LIG     1      17.674  38.106  23.540  1.00  0.00     0.064 A 
HETATM    3  C   LIG     1      17.503  37.206  24.599  1.00  0.00     0.058 A 
HETATM    4 CL   LIG     1      17.709  37.783  26.248  1.00  0.00    -0.082 Cl
HETATM    5  C   LIG     1      17.173  35.868  24.333  1.00  0.00     0.057 A 
HETATM    6 CL   LIG     1      16.950  34.707  25.635  1.00  0.00    -0.082 Cl
HETATM    7  C   LIG     1      17.018  35.441  23.011  1.00  0.00     0.052 A 
HETATM    8  C   LIG     1      17.189  36.339  21.953  1.00  0.00     0.069 A 
HETATM    9 CL   LIG     1      16.985  35.770  20.303  1.00  0.00    -0.081 Cl
ENDROOT
BRANCH   1  10
HETATM   10  O   LIG     1      17.678  38.552  21.115  1.00  0.00    -0.339 OA
BRANCH  10  11
HETATM   11  C   LIG     1      18.828  39.360  20.865  1.00  0.00     0.285 C 
BRANCH  11  12
HETATM   12  C   LIG     1      19.659  38.774  19.765  1.00  0.00     0.164 C 
HETATM   13  O   LIG     1      19.512  37.567  19.440  1.00  0.00    -0.648 OA
BRANCH  12  14
HETATM   14  O   LIG     1      20.579  39.561  19.078  1.00  0.00    -0.775 OA
HETATM   15  H   LIG     1      20.392  40.538  18.887  1.00  0.00     0.167 HD
ENDBRANCH  12  14
ENDBRANCH  11  12
ENDBRANCH  10  11
ENDBRANCH   1  10
TORSDOF 4
ENDMDL
MODEL 2
REMARK VINA RESULT:      -6.5      3.192      4.984
REMARK  4 active torsions:
REMARK  status: ('A' for Active; 'I' for Inactive)
REMARK    1  A    between atoms: C_2  and  C_4 
REMARK    2  A    between atoms: C_2  and  O_3 
REMARK    3  A    between atoms: C_4  and  O_5 
REMARK    4  A    between atoms: O_5  and  C_6 
ROOT
HETATM    1  C   LIG     1      17.081  37.424  22.907  1.00  0.00     0.092 A 
HETATM    2  C   LIG     1      17.725  38.529  22.318  1.00  0.00     0.064 A 
HETATM    3  C   LIG     1      18.269  38.433  21.031  1.00  0.00     0.058 A 
HETATM    4 CL   LIG     1      19.066  39.839  20.336  1.00  0.00    -0.082 Cl
HETATM    5  C   LIG     1      18.170  37.228  20.319  1.00  0.00     0.057 A 
HETATM    6 CL   LIG     1      18.840  37.067  18.701  1.00  0.00    -0.082 Cl
HETATM    7  C   LIG     1      17.529  36.130  20.899  1.00  0.00     0.052 A 
HETATM    8  C   LIG     1      16.986  36.225  22.184  1.00  0.00     0.069 A 
HETATM    9 CL   LIG     1      16.188  34.824  22.884  1.00  0.00    -0.081 Cl
ENDROOT
BRANCH   1  10
HETATM   10  O   LIG     1      16.523  37.479  24.196  1.00  0.00    -0.339 OA
BRANCH  10  11
HETATM   11  C   LIG     1      17.190  37.944  25.369  1.00  0.00     0.285 C 
BRANCH  11  12
HETATM   12  C   LIG     1      17.938  36.828  26.032  1.00  0.00     0.164 C 
HETATM   13  O   LIG     1      17.548  35.640  25.894  1.00  0.00    -0.648 OA
BRANCH  12  14
HETATM   14  O   LIG     1      19.081  37.091  26.782  1.00  0.00    -0.775 OA
HETATM   15  H   LIG     1      19.890  37.535  26.365  1.00  0.00     0.167 HD
ENDBRANCH  12  14
ENDBRANCH  11  12
ENDBRANCH  10  11
ENDBRANCH   1  10
TORSDOF 4
ENDMDL
MODEL 3
REMARK VINA RESULT:      -6.4      2.744      4.142
REMARK  4 active torsions:
REMARK  status: ('A' for Active; 'I' for Inactive)
REMARK    1  A    between atoms: C_2  and  C_4 
REMARK    2  A    between atoms: C_2  and  O_3 
REMARK    3  A    between atoms: C_4  and  O_5 
REMARK    4  A    between atoms: O_5  and  C_6 
ROOT
HETATM    1  C   LIG     1      16.762  36.559  22.753  1.00  0.00     0.092 A 
HETATM    2  C   LIG     1      16.780  35.555  23.741  1.00  0.00     0.064 A 
HETATM    3  C   LIG     1      17.407  35.779  24.973  1.00  0.00     0.058 A 
HETATM    4 CL   LIG     1      17.406  34.495  26.175  1.00  0.00    -0.082 Cl
HETATM    5  C   LIG     1      18.021  37.015  25.229  1.00  0.00     0.057 A 
HETATM    6 CL   LIG     1      18.818  37.337  26.764  1.00  0.00    -0.082 Cl
HETATM    7  C   LIG     1      18.002  38.015  24.253  1.00  0.00     0.052 A 
HETATM    8  C   LIG     1      17.376  37.792  23.023  1.00  0.00     0.069 A 
HETATM    9 CL   LIG     1      17.373  39.070  21.817  1.00  0.00    -0.081 Cl
ENDROOT
BRANCH   1  10
HETATM   10  O   LIG     1      16.144  36.373  21.504  1.00  0.00    -0.339 OA
BRANCH  10  11
HETATM   11  C   LIG     1      16.422  35.311  20.593  1.00  0.00     0.285 C 
BRANCH  11  12
HETATM   12  C   LIG     1      15.397  34.225  20.715  1.00  0.00     0.164 C 
HETATM   13  O   LIG     1      15.555  33.138  20.101  1.00  0.00    -0.648 OA
BRANCH  12  14
HETATM   14  O   LIG     1      14.279  34.397  21.525  1.00  0.00    -0.775 OA
HETATM   15  H   LIG     1      13.346  34.214  21.176  1.00  0.00     0.167 HD
ENDBRANCH  12  14
ENDBRANCH  11  12
ENDBRANCH  10  11
ENDBRANCH   1  10
TORSDOF 4
ENDMDL
MODEL 4
REMARK VINA RESULT:      -6.0      3.167      5.730
REMARK  4 active torsions:
REMARK  status: ('A' for Active; 'I' for Inactive)
REMARK    1  A    between atoms: C_2  and  C_4 
REMARK    2  A    between atoms: C_2  and  O_3 
REMARK    3  A    between atoms: C_4  and  O_5 
REMARK    4  A    between atoms: O_5  and  C_6 
ROOT
HETATM    1  C   LIG     1      17.223  36.808  22.897  1.00  0.00     0.092 A 
HETATM    2  C   LIG     1      17.484  36.407  21.572  1.00  0.00     0.064 A 
HETATM    3  C   LIG     1      18.076  37.293  20.665  1.00  0.00     0.058 A 
HETATM    4 CL   LIG     1      18.383  36.748  19.020  1.00  0.00    -0.082 Cl
HETATM    5  C   LIG     1      18.416  38.591  21.076  1.00  0.00     0.057 A 
HETATM    6 CL   LIG     1      19.162  39.733  19.966  1.00  0.00    -0.082 Cl
HETATM    7  C   LIG     1      18.161  38.992  22.390  1.00  0.00     0.052 A 
HETATM    8  C   LIG     1      17.570  38.107  23.297  1.00  0.00     0.069 A 
HETATM    9 CL   LIG     1      17.261  38.645  24.942  1.00  0.00    -0.081 Cl
ENDROOT
BRANCH   1  10
HETATM   10  O   LIG     1      16.629  35.949  23.839  1.00  0.00    -0.339 OA
BRANCH  10  11
HETATM   11  C   LIG     1      17.242  34.791  24.406  1.00  0.00     0.285 C 
BRANCH  11  12
HETATM   12  C   LIG     1      17.435  34.962  25.882  1.00  0.00     0.164 C 
HETATM   13  O   LIG     1      16.735  34.297  26.689  1.00  0.00    -0.648 OA
BRANCH  12  14
HETATM   14  O   LIG     1      18.403  35.833  26.372  1.00  0.00    -0.775 OA
HETATM   15  H   LIG     1      18.215  36.824  26.467  1.00  0.00     0.167 HD
ENDBRANCH  12  14
ENDBRANCH  11  12
ENDBRANCH  10  11
ENDBRANCH   1  10
TORSDOF 4
ENDMDL
MODEL 5
REMARK VINA RESULT:      -5.8      7.804      9.502
REMARK  4 active torsions:
REMARK  status: ('A' for Active; 'I' for Inactive)
REMARK    1  A    between atoms: C_2  and  C_4 
REMARK    2  A    between atoms: C_2  and  O_3 
REMARK    3  A    between atoms: C_4  and  O_5 
REMARK    4  A    between atoms: O_5  and  C_6 
ROOT
HETATM    1  C   LIG     1      16.009  32.767  15.583  1.00  0.00     0.092 A 
HETATM    2  C   LIG     1      15.805  31.605  14.813  1.00  0.00     0.064 A 
HETATM    3  C   LIG     1      14.707  30.771  15.061  1.00  0.00     0.058 A 
HETATM    4 CL   LIG     1      14.494  29.330  14.075  1.00  0.00    -0.082 Cl
HETATM    5  C   LIG     1      13.800  31.095  16.082  1.00  0.00     0.057 A 
HETATM    6 CL   LIG     1      12.410  30.074  16.424  1.00  0.00    -0.082 Cl
HETATM    7  C   LIG     1      13.998  32.248  16.846  1.00  0.00     0.052 A 
HETATM    8  C   LIG     1      15.094  33.081  16.599  1.00  0.00     0.069 A 
HETATM    9 CL   LIG     1      15.314  34.523  17.580  1.00  0.00    -0.081 Cl
ENDROOT
BRANCH   1  10
HETATM   10  O   LIG     1      17.099  33.629  15.367  1.00  0.00    -0.339 OA
BRANCH  10  11
HETATM   11  C   LIG     1      18.232  33.343  14.549  1.00  0.00     0.285 C 
BRANCH  11  12
HETATM   12  C   LIG     1      17.974  33.738  13.127  1.00  0.00     0.164 C 
HETATM   13  O   LIG     1      17.483  34.867  12.867  1.00  0.00    -0.648 OA
BRANCH  12  14
HETATM   14  O   LIG     1      18.296  32.876  12.083  1.00  0.00    -0.775 OA
HETATM   15  H   LIG     1      19.114  33.033  11.507  1.00  0.00     0.167 HD
ENDBRANCH  12  14
ENDBRANCH  11  12
ENDBRANCH  10  11
ENDBRANCH   1  10
TORSDOF 4
ENDMDL
MODEL 6
REMARK VINA RESULT:      -5.7      1.803      2.593
REMARK  4 active torsions:
REMARK  status: ('A' for Active; 'I' for Inactive)
REMARK    1  A    between atoms: C_2  and  C_4 
REMARK    2  A    between atoms: C_2  and  O_3 
REMARK    3  A    between atoms: C_4  and  O_5 
REMARK    4  A    between atoms: O_5  and  C_6 
ROOT
HETATM    1  C   LIG     1      17.266  37.001  22.595  1.00  0.00     0.092 A 
HETATM    2  C   LIG     1      17.008  35.887  23.419  1.00  0.00     0.064 A 
HETATM    3  C   LIG     1      17.374  35.902  24.771  1.00  0.00     0.058 A 
HETATM    4 CL   LIG     1      17.033  34.489  25.760  1.00  0.00    -0.082 Cl
HETATM    5  C   LIG     1      18.001  37.035  25.312  1.00  0.00     0.057 A 
HETATM    6 CL   LIG     1      18.476  37.093  27.005  1.00  0.00    -0.082 Cl
HETATM    7  C   LIG     1      18.256  38.143  24.499  1.00  0.00     0.052 A 
HETATM    8  C   LIG     1      17.890  38.129  23.150  1.00  0.00     0.069 A 
HETATM    9 CL   LIG     1      18.227  39.538  22.154  1.00  0.00    -0.081 Cl
ENDROOT
BRANCH   1  10
HETATM   10  O   LIG     1      16.915  37.026  21.234  1.00  0.00    -0.339 OA
BRANCH  10  11
HETATM   11  C   LIG     1      17.510  36.228  20.211  1.00  0.00     0.285 C 
BRANCH  11  12
HETATM   12  C   LIG     1      18.715  36.911  19.639  1.00  0.00     0.164 C 
HETATM   13  O   LIG     1      19.785  36.268  19.480  1.00  0.00    -0.648 OA
BRANCH  12  14
HETATM   14  O   LIG     1      18.655  38.247  19.257  1.00  0.00    -0.775 OA
HETATM   15  H   LIG     1      19.146  38.580  18.436  1.00  0.00     0.167 HD
ENDBRANCH  12  14
ENDBRANCH  11  12
ENDBRANCH  10  11
ENDBRANCH   1  10
TORSDOF 4
ENDMDL
MODEL 7
REMARK VINA RESULT:      -5.4      8.141      9.388
REMARK  4 active torsions:
REMARK  status: ('A' for Active; 'I' for Inactive)
REMARK    1  A    between atoms: C_2  and  C_4 
REMARK    2  A    between atoms: C_2  and  O_3 
REMARK    3  A    between atoms: C_4  and  O_5 
REMARK    4  A    between atoms: O_5  and  C_6 
ROOT
HETATM    1  C   LIG     1      16.367  32.313  14.255  1.00  0.00     0.092 A 
HETATM    2  C   LIG     1      16.278  33.273  15.283  1.00  0.00     0.064 A 
HETATM    3  C   LIG     1      15.387  33.094  16.348  1.00  0.00     0.058 A 
HETATM    4 CL   LIG     1      15.309  34.319  17.608  1.00  0.00    -0.082 Cl
HETATM    5  C   LIG     1      14.577  31.949  16.397  1.00  0.00     0.057 A 
HETATM    6 CL   LIG     1      13.446  31.687  17.718  1.00  0.00    -0.082 Cl
HETATM    7  C   LIG     1      14.665  30.993  15.381  1.00  0.00     0.052 A 
HETATM    8  C   LIG     1      15.554  31.171  14.317  1.00  0.00     0.069 A 
HETATM    9 CL   LIG     1      15.637  29.950  13.054  1.00  0.00    -0.081 Cl
ENDROOT
BRANCH   1  10
HETATM   10  O   LIG     1      17.247  32.456  13.168  1.00  0.00    -0.339 OA
BRANCH  10  11
HETATM   11  C   LIG     1      18.289  33.426  13.068  1.00  0.00     0.285 C 
BRANCH  11  12
HETATM   12  C   LIG     1      17.934  34.485  12.070  1.00  0.00     0.164 C 
HETATM   13  O   LIG     1      17.174  35.432  12.400  1.00  0.00    -0.648 OA
BRANCH  12  14
HETATM   14  O   LIG     1      18.460  34.446  10.782  1.00  0.00    -0.775 OA
HETATM   15  H   LIG     1      19.297  34.962  10.542  1.00  0.00     0.167 HD
ENDBRANCH  12  14
ENDBRANCH  11  12
ENDBRANCH  10  11
ENDBRANCH   1  10
TORSDOF 4
ENDMDL
MODEL 8
REMARK VINA RESULT:      -5.4      3.426      5.319
REMARK  4 active torsions:
REMARK  status: ('A' for Active; 'I' for Inactive)
REMARK    1  A    between atoms: C_2  and  C_4 
REMARK    2  A    between atoms: C_2  and  O_3 
REMARK    3  A    between atoms: C_4  and  O_5 
REMARK    4  A    between atoms: O_5  and  C_6 
ROOT
HETATM    1  C   LIG     1      17.164  35.861  21.535  1.00  0.00     0.092 A 
HETATM    2  C   LIG     1      17.724  36.284  20.314  1.00  0.00     0.064 A 
HETATM    3  C   LIG     1      18.273  37.567  20.190  1.00  0.00     0.058 A 
HETATM    4 CL   LIG     1      18.960  38.052  18.645  1.00  0.00    -0.082 Cl
HETATM    5  C   LIG     1      18.268  38.438  21.290  1.00  0.00     0.057 A 
HETATM    6 CL   LIG     1      18.947  40.057  21.174  1.00  0.00    -0.082 Cl
HETATM    7  C   LIG     1      17.715  38.021  22.504  1.00  0.00     0.052 A 
HETATM    8  C   LIG     1      17.168  36.740  22.628  1.00  0.00     0.069 A 
HETATM    9 CL   LIG     1      16.480  36.248  24.169  1.00  0.00    -0.081 Cl
ENDROOT
BRANCH   1  10
HETATM   10  O   LIG     1      16.603  34.582  21.701  1.00  0.00    -0.339 OA
BRANCH  10  11
HETATM   11  C   LIG     1      15.319  34.174  21.231  1.00  0.00     0.285 C 
BRANCH  11  12
HETATM   12  C   LIG     1      15.442  33.402  19.952  1.00  0.00     0.164 C 
HETATM   13  O   LIG     1      15.565  32.150  19.982  1.00  0.00    -0.648 OA
BRANCH  12  14
HETATM   14  O   LIG     1      15.396  34.056  18.725  1.00  0.00    -0.775 OA
HETATM   15  H   LIG     1      16.082  34.760  18.481  1.00  0.00     0.167 HD
ENDBRANCH  12  14
ENDBRANCH  11  12
ENDBRANCH  10  11
ENDBRANCH   1  10
TORSDOF 4
ENDMDL
MODEL 9
REMARK VINA RESULT:      -5.4      3.427      5.260
REMARK  4 active torsions:
REMARK  status: ('A' for Active; 'I' for Inactive)
REMARK    1  A    between atoms: C_2  and  C_4 
REMARK    2  A    between atoms: C_2  and  O_3 
REMARK    3  A    between atoms: C_4  and  O_5 
REMARK    4  A    between atoms: O_5  and  C_6 
ROOT
HETATM    1  C   LIG     1      16.866  36.219  22.472  1.00  0.00     0.092 A 
HETATM    2  C   LIG     1      16.014  35.097  22.425  1.00  0.00     0.064 A 
HETATM    3  C   LIG     1      15.622  34.553  21.196  1.00  0.00     0.058 A 
HETATM    4 CL   LIG     1      14.556  33.154  21.186  1.00  0.00    -0.082 Cl
HETATM    5  C   LIG     1      16.081  35.126  20.000  1.00  0.00     0.057 A 
HETATM    6 CL   LIG     1      15.611  34.472  18.436  1.00  0.00    -0.082 Cl
HETATM    7  C   LIG     1      16.929  36.236  20.042  1.00  0.00     0.052 A 
HETATM    8  C   LIG     1      17.321  36.780  21.269  1.00  0.00     0.069 A 
HETATM    9 CL   LIG     1      18.386  38.178  21.287  1.00  0.00    -0.081 Cl
ENDROOT
BRANCH   1  10
HETATM   10  O   LIG     1      17.282  36.795  23.685  1.00  0.00    -0.339 OA
BRANCH  10  11
HETATM   11  C   LIG     1      17.447  36.099  24.920  1.00  0.00     0.285 C 
BRANCH  11  12
HETATM   12  C   LIG     1      17.910  37.031  25.997  1.00  0.00     0.164 C 
HETATM   13  O   LIG     1      18.622  36.598  26.940  1.00  0.00    -0.648 OA
BRANCH  12  14
HETATM   14  O   LIG     1      17.580  38.382  25.953  1.00  0.00    -0.775 OA
HETATM   15  H   LIG     1      18.040  39.012  25.307  1.00  0.00     0.167 HD
ENDBRANCH  12  14
ENDBRANCH  11  12
ENDBRANCH  10  11
ENDBRANCH   1  10
TORSDOF 4
ENDMDL
MODEL 10
REMARK VINA RESULT:      -5.4      3.602      4.906
REMARK  4 active torsions:
REMARK  status: ('A' for Active; 'I' for Inactive)
REMARK    1  A    between atoms: C_2  and  C_4 
REMARK    2  A    between atoms: C_2  and  O_3 
REMARK    3  A    between atoms: C_4  and  O_5 
REMARK    4  A    between atoms: O_5  and  C_6 
ROOT
HETATM    1  C   LIG     1      16.870  35.854  20.804  1.00  0.00     0.092 A 
HETATM    2  C   LIG     1      16.514  36.091  22.146  1.00  0.00     0.064 A 
HETATM    3  C   LIG     1      17.071  37.165  22.851  1.00  0.00     0.058 A 
HETATM    4 CL   LIG     1      16.597  37.421  24.526  1.00  0.00    -0.082 Cl
HETATM    5  C   LIG     1      17.989  38.016  22.217  1.00  0.00     0.057 A 
HETATM    6 CL   LIG     1      18.710  39.376  23.068  1.00  0.00    -0.082 Cl
HETATM    7  C   LIG     1      18.343  37.786  20.884  1.00  0.00     0.052 A 
HETATM    8  C   LIG     1      17.787  36.714  20.180  1.00  0.00     0.069 A 
HETATM    9 CL   LIG     1      18.255  36.453  18.506  1.00  0.00    -0.081 Cl
ENDROOT
BRANCH   1  10
HETATM   10  O   LIG     1      16.335  34.787  20.062  1.00  0.00    -0.339 OA
BRANCH  10  11
HETATM   11  C   LIG     1      15.509  33.747  20.584  1.00  0.00     0.285 C 
BRANCH  11  12
HETATM   12  C   LIG     1      15.331  32.653  19.575  1.00  0.00     0.164 C 
HETATM   13  O   LIG     1      15.579  32.871  18.361  1.00  0.00    -0.648 OA
BRANCH  12  14
HETATM   14  O   LIG     1      14.915  31.386  19.973  1.00  0.00    -0.775 OA
HETATM   15  H   LIG     1      14.471  30.752  19.320  1.00  0.00     0.167 HD
ENDBRANCH  12  14
ENDBRANCH  11  12
ENDBRANCH  10  11
ENDBRANCH   1  10
TORSDOF 4
ENDMDL
MODEL 11
REMARK VINA RESULT:      -5.3      3.351      5.215
REMARK  4 active torsions:
REMARK  status: ('A' for Active; 'I' for Inactive)
REMARK    1  A    between atoms: C_2  and  C_4 
REMARK    2  A    between atoms: C_2  and  O_3 
REMARK    3  A    between atoms: C_4  and  O_5 
REMARK    4  A    between atoms: O_5  and  C_6 
ROOT
HETATM    1  C   LIG     1      16.747  37.436  23.051  1.00  0.00     0.092 A 
HETATM    2  C   LIG     1      16.300  36.244  22.447  1.00  0.00     0.064 A 
HETATM    3  C   LIG     1      16.733  35.891  21.163  1.00  0.00     0.058 A 
HETATM    4 CL   LIG     1      16.147  34.394  20.449  1.00  0.00    -0.082 Cl
HETATM    5  C   LIG     1      17.621  36.729  20.471  1.00  0.00     0.057 A 
HETATM    6 CL   LIG     1      18.188  36.321  18.857  1.00  0.00    -0.082 Cl
HETATM    7  C   LIG     1      18.069  37.910  21.068  1.00  0.00     0.052 A 
HETATM    8  C   LIG     1      17.638  38.263  22.350  1.00  0.00     0.069 A 
HETATM    9 CL   LIG     1      18.219  39.757  23.071  1.00  0.00    -0.081 Cl
ENDROOT
BRANCH   1  10
HETATM   10  O   LIG     1      16.336  37.826  24.338  1.00  0.00    -0.339 OA
BRANCH  10  11
HETATM   11  C   LIG     1      17.199  38.033  25.456  1.00  0.00     0.285 C 
BRANCH  11  12
HETATM   12  C   LIG     1      17.833  36.743  25.883  1.00  0.00     0.164 C 
HETATM   13  O   LIG     1      19.048  36.717  26.209  1.00  0.00    -0.648 OA
BRANCH  12  14
HETATM   14  O   LIG     1      17.081  35.574  25.947  1.00  0.00    -0.775 OA
HETATM   15  H   LIG     1      16.111  35.590  26.236  1.00  0.00     0.167 HD
ENDBRANCH  12  14
ENDBRANCH  11  12
ENDBRANCH  10  11
ENDBRANCH   1  10
TORSDOF 4
ENDMDL
MODEL 12
REMARK VINA RESULT:      -5.2     10.301     11.853
REMARK  4 active torsions:
REMARK  status: ('A' for Active; 'I' for Inactive)
REMARK    1  A    between atoms: C_2  and  C_4 
REMARK    2  A    between atoms: C_2  and  O_3 
REMARK    3  A    between atoms: C_4  and  O_5 
REMARK    4  A    between atoms: O_5  and  C_6 
ROOT
HETATM    1  C   LIG     1      20.601  34.128  12.280  1.00  0.00     0.092 A 
HETATM    2  C   LIG     1      21.710  34.586  13.018  1.00  0.00     0.064 A 
HETATM    3  C   LIG     1      22.636  35.463  12.441  1.00  0.00     0.058 A 
HETATM    4 CL   LIG     1      24.006  36.006  13.400  1.00  0.00    -0.082 Cl
HETATM    5  C   LIG     1      22.459  35.894  11.117  1.00  0.00     0.057 A 
HETATM    6 CL   LIG     1      23.600  36.995  10.356  1.00  0.00    -0.082 Cl
HETATM    7  C   LIG     1      21.358  35.445  10.382  1.00  0.00     0.052 A 
HETATM    8  C   LIG     1      20.433  34.569  10.958  1.00  0.00     0.069 A 
HETATM    9 CL   LIG     1      19.061  34.022  10.005  1.00  0.00    -0.081 Cl
ENDROOT
BRANCH   1  10
HETATM   10  O   LIG     1      19.648  33.247  12.822  1.00  0.00    -0.339 OA
BRANCH  10  11
HETATM   11  C   LIG     1      18.657  33.592  13.789  1.00  0.00     0.285 C 
BRANCH  11  12
HETATM   12  C   LIG     1      17.383  34.008  13.119  1.00  0.00     0.164 C 
HETATM   13  O   LIG     1      17.253  35.184  12.689  1.00  0.00    -0.648 OA
BRANCH  12  14
HETATM   14  O   LIG     1      16.347  33.096  12.943  1.00  0.00    -0.775 OA
HETATM   15  H   LIG     1      15.432  33.397  12.632  1.00  0.00     0.167 HD
ENDBRANCH  12  14
ENDBRANCH  11  12
ENDBRANCH  10  11
ENDBRANCH   1  10
TORSDOF 4
ENDMDL
MODEL 13
REMARK VINA RESULT:      -4.9      3.377      5.037
REMARK  4 active torsions:
REMARK  status: ('A' for Active; 'I' for Inactive)
REMARK    1  A    between atoms: C_2  and  C_4 
REMARK    2  A    between atoms: C_2  and  O_3 
REMARK    3  A    between atoms: C_4  and  O_5 
REMARK    4  A    between atoms: O_5  and  C_6 
ROOT
HETATM    1  C   LIG     1      17.042  35.871  22.144  1.00  0.00     0.092 A 
HETATM    2  C   LIG     1      16.182  34.755  22.118  1.00  0.00     0.064 A 
HETATM    3  C   LIG     1      15.652  34.293  20.907  1.00  0.00     0.058 A 
HETATM    4 CL   LIG     1      14.582  32.898  20.923  1.00  0.00    -0.082 Cl
HETATM    5  C   LIG     1      15.981  34.944  19.707  1.00  0.00     0.057 A 
HETATM    6 CL   LIG     1      15.337  34.395  18.166  1.00  0.00    -0.082 Cl
HETATM    7  C   LIG     1      16.836  36.049  19.729  1.00  0.00     0.052 A 
HETATM    8  C   LIG     1      17.365  36.511  20.938  1.00  0.00     0.069 A 
HETATM    9 CL   LIG     1      18.436  37.905  20.930  1.00  0.00    -0.081 Cl
ENDROOT
BRANCH   1  10
HETATM   10  O   LIG     1      17.594  36.365  23.339  1.00  0.00    -0.339 OA
BRANCH  10  11
HETATM   11  C   LIG     1      16.852  36.782  24.484  1.00  0.00     0.285 C 
BRANCH  11  12
HETATM   12  C   LIG     1      16.906  38.272  24.639  1.00  0.00     0.164 C 
HETATM   13  O   LIG     1      17.186  38.779  25.756  1.00  0.00    -0.648 OA
BRANCH  12  14
HETATM   14  O   LIG     1      16.672  39.104  23.548  1.00  0.00    -0.775 OA
HETATM   15  H   LIG     1      15.735  39.253  23.195  1.00  0.00     0.167 HD
ENDBRANCH  12  14
ENDBRANCH  11  12
ENDBRANCH  10  11
ENDBRANCH   1  10
TORSDOF 4
ENDMDL
MODEL 14
REMARK VINA RESULT:      -4.9      4.084      5.265
REMARK  4 active torsions:
REMARK  status: ('A' for Active; 'I' for Inactive)
REMARK    1  A    between atoms: C_2  and  C_4 
REMARK    2  A    between atoms: C_2  and  O_3 
REMARK    3  A    between atoms: C_4  and  O_5 
REMARK    4  A    between atoms: O_5  and  C_6 
ROOT
HETATM    1  C   LIG     1      16.394  35.320  20.201  1.00  0.00     0.092 A 
HETATM    2  C   LIG     1      17.423  36.253  19.969  1.00  0.00     0.064 A 
HETATM    3  C   LIG     1      17.715  37.241  20.917  1.00  0.00     0.058 A 
HETATM    4 CL   LIG     1      19.008  38.386  20.583  1.00  0.00    -0.082 Cl
HETATM    5  C   LIG     1      16.980  37.303  22.111  1.00  0.00     0.057 A 
HETATM    6 CL   LIG     1      17.316  38.528  23.327  1.00  0.00    -0.082 Cl
HETATM    7  C   LIG     1      15.960  36.377  22.347  1.00  0.00     0.052 A 
HETATM    8  C   LIG     1      15.668  35.390  21.400  1.00  0.00     0.069 A 
HETATM    9 CL   LIG     1      14.378  34.242  21.727  1.00  0.00    -0.081 Cl
ENDROOT
BRANCH   1  10
HETATM   10  O   LIG     1      16.069  34.313  19.275  1.00  0.00    -0.339 OA
BRANCH  10  11
HETATM   11  C   LIG     1      15.250  34.485  18.119  1.00  0.00     0.285 C 
BRANCH  11  12
HETATM   12  C   LIG     1      15.002  33.170  17.444  1.00  0.00     0.164 C 
HETATM   13  O   LIG     1      15.899  32.650  16.731  1.00  0.00    -0.648 OA
BRANCH  12  14
HETATM   14  O   LIG     1      13.793  32.503  17.619  1.00  0.00    -0.775 OA
HETATM   15  H   LIG     1      13.683  31.537  17.337  1.00  0.00     0.167 HD
ENDBRANCH  12  14
ENDBRANCH  11  12
ENDBRANCH  10  11
ENDBRANCH   1  10
TORSDOF 4
ENDMDL
MODEL 15
REMARK VINA RESULT:      -4.9      8.723     10.691
REMARK  4 active torsions:
REMARK  status: ('A' for Active; 'I' for Inactive)
REMARK    1  A    between atoms: C_2  and  C_4 
REMARK    2  A    between atoms: C_2  and  O_3 
REMARK    3  A    between atoms: C_4  and  O_5 
REMARK    4  A    between atoms: O_5  and  C_6 
ROOT
HETATM    1  C   LIG     1      14.391  31.478  15.665  1.00  0.00     0.092 A 
HETATM    2  C   LIG     1      13.509  30.416  15.384  1.00  0.00     0.064 A 
HETATM    3  C   LIG     1      13.863  29.423  14.462  1.00  0.00     0.058 A 
HETATM    4 CL   LIG     1      12.730  28.117  14.141  1.00  0.00    -0.082 Cl
HETATM    5  C   LIG     1      15.107  29.482  13.815  1.00  0.00     0.057 A 
HETATM    6 CL   LIG     1      15.589  28.254  12.652  1.00  0.00    -0.082 Cl
HETATM    7  C   LIG     1      15.986  30.532  14.094  1.00  0.00     0.052 A 
HETATM    8  C   LIG     1      15.633  31.524  15.014  1.00  0.00     0.069 A 
HETATM    9 CL   LIG     1      16.761  32.832  15.340  1.00  0.00    -0.081 Cl
ENDROOT
BRANCH   1  10
HETATM   10  O   LIG     1      14.073  32.495  16.583  1.00  0.00    -0.339 OA
BRANCH  10  11
HETATM   11  C   LIG     1      14.989  33.108  17.490  1.00  0.00     0.285 C 
BRANCH  11  12
HETATM   12  C   LIG     1      15.009  32.377  18.798  1.00  0.00     0.164 C 
HETATM   13  O   LIG     1      15.871  32.668  19.668  1.00  0.00    -0.648 OA
BRANCH  12  14
HETATM   14  O   LIG     1      14.063  31.394  19.073  1.00  0.00    -0.775 OA
HETATM   15  H   LIG     1      13.832  31.143  20.026  1.00  0.00     0.167 HD
ENDBRANCH  12  14
ENDBRANCH  11  12
ENDBRANCH  10  11
ENDBRANCH   1  10
TORSDOF 4
ENDMDL
MODEL 16
REMARK VINA RESULT:      -4.8      6.911      8.022
REMARK  4 active torsions:
REMARK  status: ('A' for Active; 'I' for Inactive)
REMARK    1  A    between atoms: C_2  and  C_4 
REMARK    2  A    between atoms: C_2  and  O_3 
REMARK    3  A    between atoms: C_4  and  O_5 
REMARK    4  A    between atoms: O_5  and  C_6 
ROOT
HETATM    1  C   LIG     1      15.307  32.781  15.979  1.00  0.00     0.092 A 
HETATM    2  C   LIG     1      15.635  33.721  16.977  1.00  0.00     0.064 A 
HETATM    3  C   LIG     1      15.339  33.464  18.321  1.00  0.00     0.058 A 
HETATM    4 CL   LIG     1      15.766  34.667  19.531  1.00  0.00    -0.082 Cl
HETATM    5  C   LIG     1      14.713  32.260  18.681  1.00  0.00     0.057 A 
HETATM    6 CL   LIG     1      14.326  31.900  20.358  1.00  0.00    -0.082 Cl
HETATM    7  C   LIG     1      14.389  31.325  17.695  1.00  0.00     0.052 A 
HETATM    8  C   LIG     1      14.684  31.580  16.353  1.00  0.00     0.069 A 
HETATM    9 CL   LIG     1      14.261  30.382  15.138  1.00  0.00    -0.081 Cl
ENDROOT
BRANCH   1  10
HETATM   10  O   LIG     1      15.586  33.001  14.619  1.00  0.00    -0.339 OA
BRANCH  10  11
HETATM   11  C   LIG     1      16.754  32.555  13.931  1.00  0.00     0.285 C 
BRANCH  11  12
HETATM   12  C   LIG     1      17.479  33.712  13.312  1.00  0.00     0.164 C 
HETATM   13  O   LIG     1      17.529  34.817  13.911  1.00  0.00    -0.648 OA
BRANCH  12  14
HETATM   14  O   LIG     1      18.121  33.568  12.086  1.00  0.00    -0.775 OA
HETATM   15  H   LIG     1      18.705  34.306  11.711  1.00  0.00     0.167 HD
ENDBRANCH  12  14
ENDBRANCH  11  12
ENDBRANCH  10  11
ENDBRANCH   1  10
TORSDOF 4
ENDMDL
MODEL 17
REMARK VINA RESULT:      -4.6      9.126     11.150
REMARK  4 active torsions:
REMARK  status: ('A' for Active; 'I' for Inactive)
REMARK    1  A    between atoms: C_2  and  C_4 
REMARK    2  A    between atoms: C_2  and  O_3 
REMARK    3  A    between atoms: C_4  and  O_5 
REMARK    4  A    between atoms: O_5  and  C_6 
ROOT
HETATM    1  C   LIG     1      17.898  34.130  12.670  1.00  0.00     0.092 A 
HETATM    2  C   LIG     1      19.194  33.778  13.097  1.00  0.00     0.064 A 
HETATM    3  C   LIG     1      20.315  34.143  12.342  1.00  0.00     0.058 A 
HETATM    4 CL   LIG     1      21.913  33.680  12.914  1.00  0.00    -0.082 Cl
HETATM    5  C   LIG     1      20.151  34.867  11.151  1.00  0.00     0.057 A 
HETATM    6 CL   LIG     1      21.534  35.344  10.175  1.00  0.00    -0.082 Cl
HETATM    7  C   LIG     1      18.867  35.220  10.726  1.00  0.00     0.052 A 
HETATM    8  C   LIG     1      17.747  34.857  11.479  1.00  0.00     0.069 A 
HETATM    9 CL   LIG     1      16.147  35.316  10.915  1.00  0.00    -0.081 Cl
ENDROOT
BRANCH   1  10
HETATM   10  O   LIG     1      16.747  33.783  13.399  1.00  0.00    -0.339 OA
BRANCH  10  11
HETATM   11  C   LIG     1      16.667  32.748  14.379  1.00  0.00     0.285 C 
BRANCH  11  12
HETATM   12  C   LIG     1      16.327  33.316  15.723  1.00  0.00     0.164 C 
HETATM   13  O   LIG     1      16.001  32.548  16.666  1.00  0.00    -0.648 OA
BRANCH  12  14
HETATM   14  O   LIG     1      16.392  34.687  15.948  1.00  0.00    -0.775 OA
HETATM   15  H   LIG     1      16.481  35.340  15.179  1.00  0.00     0.167 HD
ENDBRANCH  12  14
ENDBRANCH  11  12
ENDBRANCH  10  11
ENDBRANCH   1  10
TORSDOF 4
ENDMDL
MODEL 18
REMARK VINA RESULT:      -3.9     15.629     16.908
REMARK  4 active torsions:
REMARK  status: ('A' for Active; 'I' for Inactive)
REMARK    1  A    between atoms: C_2  and  C_4 
REMARK    2  A    between atoms: C_2  and  O_3 
REMARK    3  A    between atoms: C_4  and  O_5 
REMARK    4  A    between atoms: O_5  and  C_6 
ROOT
HETATM    1  C   LIG     1      24.944  22.578  19.934  1.00  0.00     0.092 A 
HETATM    2  C   LIG     1      25.538  21.900  18.851  1.00  0.00     0.064 A 
HETATM    3  C   LIG     1      24.785  21.020  18.064  1.00  0.00     0.058 A 
HETATM    4 CL   LIG     1      25.569  20.195  16.723  1.00  0.00    -0.082 Cl
HETATM    5  C   LIG     1      23.427  20.812  18.352  1.00  0.00     0.057 A 
HETATM    6 CL   LIG     1      22.448  19.716  17.387  1.00  0.00    -0.082 Cl
HETATM    7  C   LIG     1      22.834  21.485  19.424  1.00  0.00     0.052 A 
HETATM    8  C   LIG     1      23.585  22.364  20.210  1.00  0.00     0.069 A 
HETATM    9 CL   LIG     1      22.808  23.192  21.552  1.00  0.00    -0.081 Cl
ENDROOT
BRANCH   1  10
HETATM   10  O   LIG     1      25.665  23.469  20.749  1.00  0.00    -0.339 OA
BRANCH  10  11
HETATM   11  C   LIG     1      26.996  23.922  20.505  1.00  0.00     0.285 C 
BRANCH  11  12
HETATM   12  C   LIG     1      27.007  25.381  20.166  1.00  0.00     0.164 C 
HETATM   13  O   LIG     1      27.932  26.120  20.593  1.00  0.00    -0.648 OA
BRANCH  12  14
HETATM   14  O   LIG     1      26.013  25.926  19.359  1.00  0.00    -0.775 OA
HETATM   15  H   LIG     1      25.625  25.405  18.583  1.00  0.00     0.167 HD
ENDBRANCH  12  14
ENDBRANCH  11  12
ENDBRANCH  10  11
ENDBRANCH   1  10
TORSDOF 4
ENDMDL
