REMARK  4 active torsions:
REMARK  status: ('A' for Active; 'I' for Inactive)
REMARK    1  A    between atoms: C_2  and  C_4 
REMARK    2  A    between atoms: C_2  and  O_3 
REMARK    3  A    between atoms: C_4  and  O_5 
REMARK    4  A    between atoms: O_5  and  C_6 
ROOT
HETATM    1  C   LIG     1       0.148  -0.070  -0.598  1.00  0.00     0.092 A 
HETATM    2  C   LIG     1       0.706   0.683   0.454  1.00  0.00     0.064 A 
HETATM    3  C   LIG     1       2.016   0.441   0.885  1.00  0.00     0.058 A 
HETATM    4 CL   LIG     1       2.670   1.405   2.203  1.00  0.00    -0.082 Cl
HETATM    5  C   LIG     1       2.783  -0.557   0.264  1.00  0.00     0.057 A 
HETATM    6 CL   LIG     1       4.432  -0.891   0.776  1.00  0.00    -0.082 Cl
HETATM    7  C   LIG     1       2.234  -1.304  -0.782  1.00  0.00     0.052 A 
HETATM    8  C   LIG     1       0.926  -1.063  -1.213  1.00  0.00     0.069 A 
HETATM    9 CL   LIG     1       0.266  -2.022  -2.530  1.00  0.00    -0.081 Cl
ENDROOT
BRANCH   1  10
HETATM   10  O   LIG     1      -1.163   0.141  -1.060  1.00  0.00    -0.339 OA
BRANCH  10  11
HETATM   11  C   LIG     1      -2.112   1.035  -0.479  1.00  0.00     0.285 C 
BRANCH  11  12
HETATM   12  C   LIG     1      -2.560   0.536   0.861  1.00  0.00     0.164 C 
HETATM   13  O   LIG     1      -2.542   1.305   1.857  1.00  0.00    -0.648 OA
BRANCH  12  14
HETATM   14  O   LIG     1      -3.022  -0.768   1.011  1.00  0.00    -0.775 OA
HETATM   15  H   LIG     1      -3.059  -1.404   0.224  1.00  0.00     0.167 HD
ENDBRANCH  12  14
ENDBRANCH  11  12
ENDBRANCH  10  11
ENDBRANCH   1  10
TORSDOF 4
