REMARK  3 active torsions:
REMARK  status: ('A' for Active; 'I' for Inactive)
REMARK    1  A    between atoms: C_2  and  C_6 
REMARK    2  A    between atoms: C_2  and  O_3 
REMARK    3  A    between atoms: O_3  and  C_4 
ROOT
HETATM    1  C   LIG     1      -0.826  -0.368   0.082  1.00  0.00     0.039 A 
HETATM    2  C   LIG     1      -1.399   0.543  -0.824  1.00  0.00     0.017 A 
HETATM    3  C   LIG     1      -2.783   0.741  -0.848  1.00  0.00     0.001 A 
HETATM    4  C   LIG     1      -3.608   0.034   0.029  1.00  0.00     0.000 A 
HETATM    5  C   LIG     1      -3.051  -0.874   0.933  1.00  0.00     0.001 A 
HETATM    6  C   LIG     1      -1.667  -1.076   0.961  1.00  0.00     0.017 A 
ENDROOT
BRANCH   1   7
HETATM    7  C   LIG     1       0.639  -0.576   0.106  1.00  0.00     0.293 C 
HETATM    8  O   LIG     1       1.148  -1.395   0.921  1.00  0.00    -0.259 OA
BRANCH   7   9
HETATM    9  O   LIG     1       1.457   0.134  -0.782  1.00  0.00    -0.318 OA
BRANCH   9  10
HETATM   10  C   LIG     1       2.880   0.035  -0.791  1.00  0.00     0.174 C 
HETATM   11  C   LIG     1       3.481   0.813   0.374  1.00  0.00     0.034 C 
ENDBRANCH   9  10
ENDBRANCH   7   9
ENDBRANCH   1   7
TORSDOF 3
