REMARK  0 active torsions:
REMARK  status: ('A' for Active; 'I' for Inactive)
ROOT
HETATM    1  C   LIG     1       3.055   0.179  -0.230  1.00  0.00     0.072 C 
HETATM    2  C   LIG     1       1.594  -0.046  -0.003  1.00  0.00     0.050 A 
HETATM    3  N   LIG     1       0.676   0.736  -0.636  1.00  0.00    -0.231 NA
HETATM    4  C   LIG     1      -0.655   0.548  -0.444  1.00  0.00     0.181 A 
HETATM    5  N   LIG     1      -1.563   1.333  -1.079  1.00  0.00    -0.220 NA
HETATM    6  C   LIG     1      -2.897   1.143  -0.885  1.00  0.00     0.235 A 
HETATM    7  N   LIG     1      -3.336   0.163  -0.050  1.00  0.00    -0.252 NA
HETATM    8  C   LIG     1      -2.461  -0.645   0.606  1.00  0.00     0.153 A 
HETATM    9  C   LIG     1      -1.091  -0.468   0.421  1.00  0.00     0.121 A 
HETATM   10  N   LIG     1      -0.178  -1.250   1.054  1.00  0.00    -0.254 NA
HETATM   11  C   LIG     1       1.155  -1.061   0.861  1.00  0.00     0.144 A 
ENDROOT
TORSDOF 0
