MODEL 1
REMARK VINA RESULT:      -6.0      0.000      0.000
REMARK  0 active torsions:
REMARK  status: ('A' for Active; 'I' for Inactive)
ROOT
HETATM    1  C   LIG     1      15.843  34.531  21.212  1.00  0.00     0.072 C 
HETATM    2  C   LIG     1      16.619  35.809  21.209  1.00  0.00     0.050 A 
HETATM    3  N   LIG     1      17.613  36.002  20.298  1.00  0.00    -0.231 NA
HETATM    4  C   LIG     1      18.329  37.156  20.278  1.00  0.00     0.181 A 
HETATM    5  N   LIG     1      19.319  37.340  19.366  1.00  0.00    -0.220 NA
HETATM    6  C   LIG     1      20.036  38.497  19.348  1.00  0.00     0.235 A 
HETATM    7  N   LIG     1      19.769  39.483  20.245  1.00  0.00    -0.252 NA
HETATM    8  C   LIG     1      18.787  39.340  21.175  1.00  0.00     0.153 A 
HETATM    9  C   LIG     1      18.041  38.164  21.211  1.00  0.00     0.121 A 
HETATM   10  N   LIG     1      17.050  37.974  22.121  1.00  0.00    -0.254 NA
HETATM   11  C   LIG     1      16.333  36.819  22.141  1.00  0.00     0.144 A 
ENDROOT
TORSDOF 0
ENDMDL
MODEL 2
REMARK VINA RESULT:      -5.9      3.137      4.596
REMARK  0 active torsions:
REMARK  status: ('A' for Active; 'I' for Inactive)
ROOT
HETATM    1  C   LIG     1      15.961  35.528  20.716  1.00  0.00     0.072 C 
HETATM    2  C   LIG     1      16.407  36.044  22.047  1.00  0.00     0.050 A 
HETATM    3  N   LIG     1      16.809  35.175  23.016  1.00  0.00    -0.231 NA
HETATM    4  C   LIG     1      17.218  35.622  24.231  1.00  0.00     0.181 A 
HETATM    5  N   LIG     1      17.616  34.748  25.191  1.00  0.00    -0.220 NA
HETATM    6  C   LIG     1      18.026  35.199  26.409  1.00  0.00     0.235 A 
HETATM    7  N   LIG     1      18.040  36.532  26.678  1.00  0.00    -0.252 NA
HETATM    8  C   LIG     1      17.648  37.441  25.745  1.00  0.00     0.153 A 
HETATM    9  C   LIG     1      17.226  37.001  24.492  1.00  0.00     0.121 A 
HETATM   10  N   LIG     1      16.826  37.871  23.528  1.00  0.00    -0.254 NA
HETATM   11  C   LIG     1      16.416  37.422  22.311  1.00  0.00     0.144 A 
ENDROOT
TORSDOF 0
ENDMDL
MODEL 3
REMARK VINA RESULT:      -5.5      1.098      3.879
REMARK  0 active torsions:
REMARK  status: ('A' for Active; 'I' for Inactive)
ROOT
HETATM    1  C   LIG     1      20.455  38.895  19.331  1.00  0.00     0.072 C 
HETATM    2  C   LIG     1      19.321  38.353  20.141  1.00  0.00     0.050 A 
HETATM    3  N   LIG     1      18.687  37.212  19.750  1.00  0.00    -0.231 NA
HETATM    4  C   LIG     1      17.655  36.703  20.471  1.00  0.00     0.181 A 
HETATM    5  N   LIG     1      17.028  35.566  20.074  1.00  0.00    -0.220 NA
HETATM    6  C   LIG     1      15.994  35.057  20.799  1.00  0.00     0.235 A 
HETATM    7  N   LIG     1      15.576  35.684  21.931  1.00  0.00    -0.252 NA
HETATM    8  C   LIG     1      16.175  36.825  22.364  1.00  0.00     0.153 A 
HETATM    9  C   LIG     1      17.236  37.363  21.638  1.00  0.00     0.121 A 
HETATM   10  N   LIG     1      17.867  38.500  22.030  1.00  0.00    -0.254 NA
HETATM   11  C   LIG     1      18.900  39.010  21.307  1.00  0.00     0.144 A 
ENDROOT
TORSDOF 0
ENDMDL
MODEL 4
REMARK VINA RESULT:      -5.4      6.841      8.714
REMARK  0 active torsions:
REMARK  status: ('A' for Active; 'I' for Inactive)
ROOT
HETATM    1  C   LIG     1      18.119  33.680  13.566  1.00  0.00     0.072 C 
HETATM    2  C   LIG     1      17.013  32.941  14.248  1.00  0.00     0.050 A 
HETATM    3  N   LIG     1      16.759  33.158  15.568  1.00  0.00    -0.231 NA
HETATM    4  C   LIG     1      15.759  32.498  16.207  1.00  0.00     0.181 A 
HETATM    5  N   LIG     1      15.513  32.720  17.524  1.00  0.00    -0.220 NA
HETATM    6  C   LIG     1      14.510  32.057  18.162  1.00  0.00     0.235 A 
HETATM    7  N   LIG     1      13.742  31.161  17.486  1.00  0.00    -0.252 NA
HETATM    8  C   LIG     1      13.953  30.908  16.167  1.00  0.00     0.153 A 
HETATM    9  C   LIG     1      14.975  31.577  15.494  1.00  0.00     0.121 A 
HETATM   10  N   LIG     1      15.225  31.358  14.177  1.00  0.00    -0.254 NA
HETATM   11  C   LIG     1      16.227  32.020  13.539  1.00  0.00     0.144 A 
ENDROOT
TORSDOF 0
ENDMDL
MODEL 5
REMARK VINA RESULT:      -5.4      1.345      2.618
REMARK  0 active torsions:
REMARK  status: ('A' for Active; 'I' for Inactive)
ROOT
HETATM    1  C   LIG     1      16.878  37.807  24.874  1.00  0.00     0.072 C 
HETATM    2  C   LIG     1      17.273  37.584  23.448  1.00  0.00     0.050 A 
HETATM    3  N   LIG     1      17.948  38.551  22.767  1.00  0.00    -0.231 NA
HETATM    4  C   LIG     1      18.316  38.368  21.473  1.00  0.00     0.181 A 
HETATM    5  N   LIG     1      18.989  39.338  20.802  1.00  0.00    -0.220 NA
HETATM    6  C   LIG     1      19.357  39.153  19.504  1.00  0.00     0.235 A 
HETATM    7  N   LIG     1      19.052  37.992  18.864  1.00  0.00    -0.252 NA
HETATM    8  C   LIG     1      18.379  36.996  19.498  1.00  0.00     0.153 A 
HETATM    9  C   LIG     1      17.994  37.164  20.827  1.00  0.00     0.121 A 
HETATM   10  N   LIG     1      17.321  36.198  21.503  1.00  0.00    -0.254 NA
HETATM   11  C   LIG     1      16.953  36.381  22.800  1.00  0.00     0.144 A 
ENDROOT
TORSDOF 0
ENDMDL
MODEL 6
REMARK VINA RESULT:      -5.4      1.192      4.171
REMARK  0 active torsions:
REMARK  status: ('A' for Active; 'I' for Inactive)
ROOT
HETATM    1  C   LIG     1      20.489  38.960  19.117  1.00  0.00     0.072 C 
HETATM    2  C   LIG     1      19.393  38.246  19.843  1.00  0.00     0.050 A 
HETATM    3  N   LIG     1      18.758  38.850  20.886  1.00  0.00    -0.231 NA
HETATM    4  C   LIG     1      17.761  38.219  21.558  1.00  0.00     0.181 A 
HETATM    5  N   LIG     1      17.133  38.829  22.596  1.00  0.00    -0.220 NA
HETATM    6  C   LIG     1      16.134  38.195  23.269  1.00  0.00     0.235 A 
HETATM    7  N   LIG     1      15.753  36.940  22.908  1.00  0.00    -0.252 NA
HETATM    8  C   LIG     1      16.355  36.293  21.875  1.00  0.00     0.153 A 
HETATM    9  C   LIG     1      17.380  36.924  21.172  1.00  0.00     0.121 A 
HETATM   10  N   LIG     1      18.012  36.319  20.133  1.00  0.00    -0.254 NA
HETATM   11  C   LIG     1      19.010  36.951  19.460  1.00  0.00     0.144 A 
ENDROOT
TORSDOF 0
ENDMDL
MODEL 7
REMARK VINA RESULT:      -5.3      7.070      8.366
REMARK  0 active torsions:
REMARK  status: ('A' for Active; 'I' for Inactive)
ROOT
HETATM    1  C   LIG     1      14.855  28.649  13.784  1.00  0.00     0.072 C 
HETATM    2  C   LIG     1      15.054  29.979  14.439  1.00  0.00     0.050 A 
HETATM    3  N   LIG     1      16.073  30.790  14.040  1.00  0.00    -0.231 NA
HETATM    4  C   LIG     1      16.270  32.002  14.621  1.00  0.00     0.181 A 
HETATM    5  N   LIG     1      17.289  32.804  14.218  1.00  0.00    -0.220 NA
HETATM    6  C   LIG     1      17.486  34.018  14.801  1.00  0.00     0.235 A 
HETATM    7  N   LIG     1      16.663  34.441  15.798  1.00  0.00    -0.252 NA
HETATM    8  C   LIG     1      15.631  33.669  16.233  1.00  0.00     0.153 A 
HETATM    9  C   LIG     1      15.412  32.423  15.648  1.00  0.00     0.121 A 
HETATM   10  N   LIG     1      14.395  31.616  16.048  1.00  0.00    -0.254 NA
HETATM   11  C   LIG     1      14.197  30.403  15.466  1.00  0.00     0.144 A 
ENDROOT
TORSDOF 0
ENDMDL
MODEL 8
REMARK VINA RESULT:      -5.2      3.366      5.322
REMARK  0 active torsions:
REMARK  status: ('A' for Active; 'I' for Inactive)
ROOT
HETATM    1  C   LIG     1      15.866  39.158  22.218  1.00  0.00     0.072 C 
HETATM    2  C   LIG     1      16.357  37.978  22.994  1.00  0.00     0.050 A 
HETATM    3  N   LIG     1      16.871  38.148  24.244  1.00  0.00    -0.231 NA
HETATM    4  C   LIG     1      17.322  37.089  24.965  1.00  0.00     0.181 A 
HETATM    5  N   LIG     1      17.834  37.269  26.210  1.00  0.00    -0.220 NA
HETATM    6  C   LIG     1      18.285  36.206  26.932  1.00  0.00     0.235 A 
HETATM    7  N   LIG     1      18.229  34.950  26.412  1.00  0.00    -0.252 NA
HETATM    8  C   LIG     1      17.724  34.726  25.169  1.00  0.00     0.153 A 
HETATM    9  C   LIG     1      17.256  35.800  24.414  1.00  0.00     0.121 A 
HETATM   10  N   LIG     1      16.744  35.627  23.168  1.00  0.00    -0.254 NA
HETATM   11  C   LIG     1      16.293  36.687  22.446  1.00  0.00     0.144 A 
ENDROOT
TORSDOF 0
ENDMDL
MODEL 9
REMARK VINA RESULT:      -5.2      7.230      8.899
REMARK  0 active torsions:
REMARK  status: ('A' for Active; 'I' for Inactive)
ROOT
HETATM    1  C   LIG     1      13.371  28.616  14.159  1.00  0.00     0.072 C 
HETATM    2  C   LIG     1      14.217  29.822  14.413  1.00  0.00     0.050 A 
HETATM    3  N   LIG     1      13.912  30.667  15.438  1.00  0.00    -0.231 NA
HETATM    4  C   LIG     1      14.667  31.767  15.686  1.00  0.00     0.181 A 
HETATM    5  N   LIG     1      14.355  32.604  16.709  1.00  0.00    -0.220 NA
HETATM    6  C   LIG     1      15.114  33.707  16.956  1.00  0.00     0.235 A 
HETATM    7  N   LIG     1      16.195  33.984  16.179  1.00  0.00    -0.252 NA
HETATM    8  C   LIG     1      16.542  33.173  15.144  1.00  0.00     0.153 A 
HETATM    9  C   LIG     1      15.780  32.038  14.874  1.00  0.00     0.121 A 
HETATM   10  N   LIG     1      16.087  31.198  13.852  1.00  0.00    -0.254 NA
HETATM   11  C   LIG     1      15.330  30.096  13.603  1.00  0.00     0.144 A 
ENDROOT
TORSDOF 0
ENDMDL
MODEL 10
REMARK VINA RESULT:      -5.1      6.771      8.082
REMARK  0 active torsions:
REMARK  status: ('A' for Active; 'I' for Inactive)
ROOT
HETATM    1  C   LIG     1      13.496  30.608  16.629  1.00  0.00     0.072 C 
HETATM    2  C   LIG     1      14.515  31.276  15.762  1.00  0.00     0.050 A 
HETATM    3  N   LIG     1      15.038  32.479  16.127  1.00  0.00    -0.231 NA
HETATM    4  C   LIG     1      15.965  33.103  15.355  1.00  0.00     0.181 A 
HETATM    5  N   LIG     1      16.481  34.303  15.726  1.00  0.00    -0.220 NA
HETATM    6  C   LIG     1      17.409  34.927  14.951  1.00  0.00     0.235 A 
HETATM    7  N   LIG     1      17.831  34.354  13.791  1.00  0.00    -0.252 NA
HETATM    8  C   LIG     1      17.340  33.153  13.382  1.00  0.00     0.153 A 
HETATM    9  C   LIG     1      16.389  32.498  14.161  1.00  0.00     0.121 A 
HETATM   10  N   LIG     1      15.869  31.297  13.795  1.00  0.00    -0.254 NA
HETATM   11  C   LIG     1      14.941  30.673  14.569  1.00  0.00     0.144 A 
ENDROOT
TORSDOF 0
ENDMDL
MODEL 11
REMARK VINA RESULT:      -5.1      6.663      7.675
REMARK  0 active torsions:
REMARK  status: ('A' for Active; 'I' for Inactive)
ROOT
HETATM    1  C   LIG     1      13.619  30.775  16.326  1.00  0.00     0.072 C 
HETATM    2  C   LIG     1      14.652  31.777  15.916  1.00  0.00     0.050 A 
HETATM    3  N   LIG     1      15.362  31.594  14.769  1.00  0.00    -0.231 NA
HETATM    4  C   LIG     1      16.304  32.491  14.379  1.00  0.00     0.181 A 
HETATM    5  N   LIG     1      17.008  32.300  13.233  1.00  0.00    -0.220 NA
HETATM    6  C   LIG     1      17.952  33.201  12.844  1.00  0.00     0.235 A 
HETATM    7  N   LIG     1      18.201  34.304  13.600  1.00  0.00    -0.252 NA
HETATM    8  C   LIG     1      17.519  34.533  14.754  1.00  0.00     0.153 A 
HETATM    9  C   LIG     1      16.549  33.624  15.171  1.00  0.00     0.121 A 
HETATM   10  N   LIG     1      15.841  33.809  16.316  1.00  0.00    -0.254 NA
HETATM   11  C   LIG     1      14.898  32.910  16.706  1.00  0.00     0.144 A 
ENDROOT
TORSDOF 0
ENDMDL
MODEL 12
REMARK VINA RESULT:      -5.1      6.749      7.974
REMARK  0 active torsions:
REMARK  status: ('A' for Active; 'I' for Inactive)
ROOT
HETATM    1  C   LIG     1      14.492  31.944  18.842  1.00  0.00     0.072 C 
HETATM    2  C   LIG     1      14.898  31.921  17.402  1.00  0.00     0.050 A 
HETATM    3  N   LIG     1      15.959  32.663  16.980  1.00  0.00    -0.231 NA
HETATM    4  C   LIG     1      16.344  32.656  15.678  1.00  0.00     0.181 A 
HETATM    5  N   LIG     1      17.403  33.400  15.266  1.00  0.00    -0.220 NA
HETATM    6  C   LIG     1      17.787  33.391  13.960  1.00  0.00     0.235 A 
HETATM    7  N   LIG     1      17.113  32.636  13.051  1.00  0.00    -0.252 NA
HETATM    8  C   LIG     1      16.047  31.877  13.421  1.00  0.00     0.153 A 
HETATM    9  C   LIG     1      15.637  31.871  14.753  1.00  0.00     0.121 A 
HETATM   10  N   LIG     1      14.578  31.129  15.171  1.00  0.00    -0.254 NA
HETATM   11  C   LIG     1      14.193  31.137  16.476  1.00  0.00     0.144 A 
ENDROOT
TORSDOF 0
ENDMDL
MODEL 13
REMARK VINA RESULT:      -5.0      2.298      3.580
REMARK  0 active torsions:
REMARK  status: ('A' for Active; 'I' for Inactive)
ROOT
HETATM    1  C   LIG     1      15.911  33.825  20.614  1.00  0.00     0.072 C 
HETATM    2  C   LIG     1      16.429  35.025  21.341  1.00  0.00     0.050 A 
HETATM    3  N   LIG     1      16.546  35.003  22.698  1.00  0.00    -0.231 NA
HETATM    4  C   LIG     1      17.014  36.082  23.377  1.00  0.00     0.181 A 
HETATM    5  N   LIG     1      17.127  36.051  24.730  1.00  0.00    -0.220 NA
HETATM    6  C   LIG     1      17.596  37.134  25.410  1.00  0.00     0.235 A 
HETATM    7  N   LIG     1      17.957  38.261  24.739  1.00  0.00    -0.252 NA
HETATM    8  C   LIG     1      17.859  38.334  23.385  1.00  0.00     0.153 A 
HETATM    9  C   LIG     1      17.382  37.237  22.670  1.00  0.00     0.121 A 
HETATM   10  N   LIG     1      17.267  37.262  21.316  1.00  0.00    -0.254 NA
HETATM   11  C   LIG     1      16.798  36.181  20.637  1.00  0.00     0.144 A 
ENDROOT
TORSDOF 0
ENDMDL
MODEL 14
REMARK VINA RESULT:      -5.0      1.843      3.880
REMARK  0 active torsions:
REMARK  status: ('A' for Active; 'I' for Inactive)
ROOT
HETATM    1  C   LIG     1      18.987  37.717  18.804  1.00  0.00     0.072 C 
HETATM    2  C   LIG     1      18.566  38.026  20.205  1.00  0.00     0.050 A 
HETATM    3  N   LIG     1      17.913  37.087  20.945  1.00  0.00    -0.231 NA
HETATM    4  C   LIG     1      17.523  37.347  22.219  1.00  0.00     0.181 A 
HETATM    5  N   LIG     1      16.872  36.405  22.949  1.00  0.00    -0.220 NA
HETATM    6  C   LIG     1      16.481  36.667  24.227  1.00  0.00     0.235 A 
HETATM    7  N   LIG     1      16.738  37.880  24.787  1.00  0.00    -0.252 NA
HETATM    8  C   LIG     1      17.386  38.852  24.091  1.00  0.00     0.153 A 
HETATM    9  C   LIG     1      17.796  38.604  22.782  1.00  0.00     0.121 A 
HETATM   10  N   LIG     1      18.446  39.543  22.047  1.00  0.00    -0.254 NA
HETATM   11  C   LIG     1      18.837  39.281  20.771  1.00  0.00     0.144 A 
ENDROOT
TORSDOF 0
ENDMDL
MODEL 15
REMARK VINA RESULT:      -4.7      1.592      2.608
REMARK  0 active torsions:
REMARK  status: ('A' for Active; 'I' for Inactive)
ROOT
HETATM    1  C   LIG     1      15.479  32.989  19.520  1.00  0.00     0.072 C 
HETATM    2  C   LIG     1      15.667  34.218  20.351  1.00  0.00     0.050 A 
HETATM    3  N   LIG     1      16.712  35.056  20.104  1.00  0.00    -0.231 NA
HETATM    4  C   LIG     1      16.901  36.177  20.847  1.00  0.00     0.181 A 
HETATM    5  N   LIG     1      17.945  37.007  20.593  1.00  0.00    -0.220 NA
HETATM    6  C   LIG     1      18.133  38.130  21.339  1.00  0.00     0.235 A 
HETATM    7  N   LIG     1      17.274  38.434  22.350  1.00  0.00    -0.252 NA
HETATM    8  C   LIG     1      16.216  37.630  22.637  1.00  0.00     0.153 A 
HETATM    9  C   LIG     1      16.005  36.476  21.886  1.00  0.00     0.121 A 
HETATM   10  N   LIG     1      14.962  35.642  22.135  1.00  0.00    -0.254 NA
HETATM   11  C   LIG     1      14.774  34.519  21.390  1.00  0.00     0.144 A 
ENDROOT
TORSDOF 0
ENDMDL
MODEL 16
REMARK VINA RESULT:      -4.7      2.751      4.003
REMARK  0 active torsions:
REMARK  status: ('A' for Active; 'I' for Inactive)
ROOT
HETATM    1  C   LIG     1      17.318  34.675  26.554  1.00  0.00     0.072 C 
HETATM    2  C   LIG     1      17.266  35.418  25.257  1.00  0.00     0.050 A 
HETATM    3  N   LIG     1      17.286  36.780  25.248  1.00  0.00    -0.231 NA
HETATM    4  C   LIG     1      17.240  37.473  24.082  1.00  0.00     0.181 A 
HETATM    5  N   LIG     1      17.260  38.831  24.084  1.00  0.00    -0.220 NA
HETATM    6  C   LIG     1      17.214  39.524  22.913  1.00  0.00     0.235 A 
HETATM    7  N   LIG     1      17.146  38.863  21.726  1.00  0.00    -0.252 NA
HETATM    8  C   LIG     1      17.124  37.505  21.679  1.00  0.00     0.153 A 
HETATM    9  C   LIG     1      17.171  36.775  22.866  1.00  0.00     0.121 A 
HETATM   10  N   LIG     1      17.151  35.417  22.871  1.00  0.00    -0.254 NA
HETATM   11  C   LIG     1      17.197  34.723  24.039  1.00  0.00     0.144 A 
ENDROOT
TORSDOF 0
ENDMDL
MODEL 17
REMARK VINA RESULT:      -4.6      7.566      9.762
REMARK  0 active torsions:
REMARK  status: ('A' for Active; 'I' for Inactive)
ROOT
HETATM    1  C   LIG     1      15.206  34.121  17.177  1.00  0.00     0.072 C 
HETATM    2  C   LIG     1      15.270  32.928  16.278  1.00  0.00     0.050 A 
HETATM    3  N   LIG     1      14.203  32.088  16.180  1.00  0.00    -0.231 NA
HETATM    4  C   LIG     1      14.240  30.999  15.369  1.00  0.00     0.181 A 
HETATM    5  N   LIG     1      13.171  30.167  15.278  1.00  0.00    -0.220 NA
HETATM    6  C   LIG     1      13.211  29.076  14.465  1.00  0.00     0.235 A 
HETATM    7  N   LIG     1      14.326  28.806  13.733  1.00  0.00    -0.252 NA
HETATM    8  C   LIG     1      15.419  29.613  13.795  1.00  0.00     0.153 A 
HETATM    9  C   LIG     1      15.399  30.735  14.621  1.00  0.00     0.121 A 
HETATM   10  N   LIG     1      16.466  31.571  14.716  1.00  0.00    -0.254 NA
HETATM   11  C   LIG     1      16.427  32.661  15.528  1.00  0.00     0.144 A 
ENDROOT
TORSDOF 0
ENDMDL
MODEL 18
REMARK VINA RESULT:      -4.5      3.465      5.791
REMARK  0 active torsions:
REMARK  status: ('A' for Active; 'I' for Inactive)
ROOT
HETATM    1  C   LIG     1      16.389  36.240  21.489  1.00  0.00     0.072 C 
HETATM    2  C   LIG     1      15.919  35.112  20.627  1.00  0.00     0.050 A 
HETATM    3  N   LIG     1      15.994  35.212  19.271  1.00  0.00    -0.231 NA
HETATM    4  C   LIG     1      15.573  34.200  18.470  1.00  0.00     0.181 A 
HETATM    5  N   LIG     1      15.651  34.309  17.119  1.00  0.00    -0.220 NA
HETATM    6  C   LIG     1      15.228  33.292  16.317  1.00  0.00     0.235 A 
HETATM    7  N   LIG     1      14.722  32.154  16.863  1.00  0.00    -0.252 NA
HETATM    8  C   LIG     1      14.626  32.004  18.211  1.00  0.00     0.153 A 
HETATM    9  C   LIG     1      15.053  33.032  19.049  1.00  0.00     0.121 A 
HETATM   10  N   LIG     1      14.978  32.928  20.402  1.00  0.00    -0.254 NA
HETATM   11  C   LIG     1      15.399  33.943  21.203  1.00  0.00     0.144 A 
ENDROOT
TORSDOF 0
ENDMDL
MODEL 19
REMARK VINA RESULT:      -4.4      2.892      3.659
REMARK  0 active torsions:
REMARK  status: ('A' for Active; 'I' for Inactive)
ROOT
HETATM    1  C   LIG     1      15.869  34.729  20.084  1.00  0.00     0.072 C 
HETATM    2  C   LIG     1      16.268  35.370  21.374  1.00  0.00     0.050 A 
HETATM    3  N   LIG     1      16.150  36.718  21.533  1.00  0.00    -0.231 NA
HETATM    4  C   LIG     1      16.507  37.320  22.697  1.00  0.00     0.181 A 
HETATM    5  N   LIG     1      16.386  38.664  22.845  1.00  0.00    -0.220 NA
HETATM    6  C   LIG     1      16.744  39.265  24.013  1.00  0.00     0.235 A 
HETATM    7  N   LIG     1      17.229  38.524  25.046  1.00  0.00    -0.252 NA
HETATM    8  C   LIG     1      17.366  37.176  24.939  1.00  0.00     0.153 A 
HETATM    9  C   LIG     1      17.005  36.540  23.752  1.00  0.00     0.121 A 
HETATM   10  N   LIG     1      17.124  35.196  23.598  1.00  0.00    -0.254 NA
HETATM   11  C   LIG     1      16.766  34.594  22.432  1.00  0.00     0.144 A 
ENDROOT
TORSDOF 0
ENDMDL
MODEL 20
REMARK VINA RESULT:      -4.0      4.558      6.548
REMARK  0 active torsions:
REMARK  status: ('A' for Active; 'I' for Inactive)
ROOT
HETATM    1  C   LIG     1      13.567  30.862  15.434  1.00  0.00     0.072 C 
HETATM    2  C   LIG     1      14.051  31.464  16.715  1.00  0.00     0.050 A 
HETATM    3  N   LIG     1      14.596  32.712  16.720  1.00  0.00    -0.231 NA
HETATM    4  C   LIG     1      15.041  33.277  17.872  1.00  0.00     0.181 A 
HETATM    5  N   LIG     1      15.584  34.521  17.867  1.00  0.00    -0.220 NA
HETATM    6  C   LIG     1      16.029  35.086  19.023  1.00  0.00     0.235 A 
HETATM    7  N   LIG     1      15.937  34.407  20.198  1.00  0.00    -0.252 NA
HETATM    8  C   LIG     1      15.401  33.158  20.247  1.00  0.00     0.153 A 
HETATM    9  C   LIG     1      14.938  32.562  19.076  1.00  0.00     0.121 A 
HETATM   10  N   LIG     1      14.394  31.317  19.074  1.00  0.00    -0.254 NA
HETATM   11  C   LIG     1      13.949  30.752  17.920  1.00  0.00     0.144 A 
ENDROOT
TORSDOF 0
ENDMDL
