REMARK  1 active torsions:
REMARK  status: ('A' for Active; 'I' for Inactive)
REMARK    1  A    between atoms: C_2  and  C_3 
ROOT
HETATM    1  C   LIG     1       1.335  -0.149   0.460  1.00  0.00    -0.058 A 
HETATM    2  C   LIG     1       0.206  -0.986   0.473  1.00  0.00     0.019 A 
HETATM    3  C   LIG     1      -1.081  -0.444   0.337  1.00  0.00    -0.025 A 
HETATM    4  C   LIG     1      -2.212  -1.275   0.345  1.00  0.00     0.012 A 
HETATM    5  C   LIG     1      -3.490  -0.724   0.209  1.00  0.00     0.001 A 
HETATM    6  C   LIG     1      -3.648   0.657   0.064  1.00  0.00     0.001 A 
HETATM    7  C   LIG     1      -2.530   1.496   0.054  1.00  0.00     0.012 A 
HETATM    8  C   LIG     1      -1.242   0.956   0.190  1.00  0.00    -0.026 A 
HETATM    9  C   LIG     1      -0.113   1.786   0.183  1.00  0.00     0.013 A 
HETATM   10  C   LIG     1       1.165   1.238   0.318  1.00  0.00     0.008 A 
ENDROOT
BRANCH   1  11
HETATM   11  C   LIG     1       2.717  -0.730   0.611  1.00  0.00     0.034 C 
HETATM   12  C   LIG     1       3.502  -0.631  -0.695  1.00  0.00     0.010 C 
ENDBRANCH   1  11
TORSDOF 1
