MODEL 1
REMARK VINA RESULT:      -8.4      0.000      0.000
REMARK  1 active torsions:
REMARK  status: ('A' for Active; 'I' for Inactive)
REMARK    1  A    between atoms: C_2  and  C_3 
ROOT
HETATM    1  C   LIG     1      16.583  36.004  21.830  1.00  0.00    -0.058 A 
HETATM    2  C   LIG     1      16.839  35.139  22.908  1.00  0.00     0.019 A 
HETATM    3  C   LIG     1      17.290  35.648  24.135  1.00  0.00    -0.025 A 
HETATM    4  C   LIG     1      17.544  34.789  25.216  1.00  0.00     0.012 A 
HETATM    5  C   LIG     1      17.994  35.307  26.434  1.00  0.00     0.001 A 
HETATM    6  C   LIG     1      18.193  36.682  26.583  1.00  0.00     0.001 A 
HETATM    7  C   LIG     1      17.944  37.548  25.514  1.00  0.00     0.012 A 
HETATM    8  C   LIG     1      17.492  37.042  24.286  1.00  0.00    -0.026 A 
HETATM    9  C   LIG     1      17.240  37.899  23.207  1.00  0.00     0.013 A 
HETATM   10  C   LIG     1      16.790  37.384  21.988  1.00  0.00     0.008 A 
ENDROOT
BRANCH   1  11
HETATM   11  C   LIG     1      16.103  35.458  20.511  1.00  0.00     0.034 C 
HETATM   12  C   LIG     1      15.739  33.979  20.626  1.00  0.00     0.010 C 
ENDBRANCH   1  11
TORSDOF 1
ENDMDL
MODEL 2
REMARK VINA RESULT:      -8.4      1.263      2.937
REMARK  1 active torsions:
REMARK  status: ('A' for Active; 'I' for Inactive)
REMARK    1  A    between atoms: C_2  and  C_3 
ROOT
HETATM    1  C   LIG     1      17.548  38.118  22.493  1.00  0.00    -0.058 A 
HETATM    2  C   LIG     1      17.995  38.208  23.823  1.00  0.00     0.019 A 
HETATM    3  C   LIG     1      17.895  37.103  24.682  1.00  0.00    -0.025 A 
HETATM    4  C   LIG     1      18.342  37.186  26.009  1.00  0.00     0.012 A 
HETATM    5  C   LIG     1      18.237  36.079  26.857  1.00  0.00     0.001 A 
HETATM    6  C   LIG     1      17.686  34.883  26.386  1.00  0.00     0.001 A 
HETATM    7  C   LIG     1      17.237  34.787  25.066  1.00  0.00     0.012 A 
HETATM    8  C   LIG     1      17.336  35.891  24.206  1.00  0.00    -0.026 A 
HETATM    9  C   LIG     1      16.888  35.809  22.881  1.00  0.00     0.013 A 
HETATM   10  C   LIG     1      16.992  36.914  22.032  1.00  0.00     0.008 A 
ENDROOT
BRANCH   1  11
HETATM   11  C   LIG     1      17.651  39.306  21.572  1.00  0.00     0.034 C 
HETATM   12  C   LIG     1      18.985  39.313  20.829  1.00  0.00     0.010 C 
ENDBRANCH   1  11
TORSDOF 1
ENDMDL
MODEL 3
REMARK VINA RESULT:      -8.0      2.748      4.159
REMARK  1 active torsions:
REMARK  status: ('A' for Active; 'I' for Inactive)
REMARK    1  A    between atoms: C_2  and  C_3 
ROOT
HETATM    1  C   LIG     1      16.178  35.796  21.456  1.00  0.00    -0.058 A 
HETATM    2  C   LIG     1      17.215  35.838  20.508  1.00  0.00     0.019 A 
HETATM    3  C   LIG     1      18.068  36.950  20.437  1.00  0.00    -0.025 A 
HETATM    4  C   LIG     1      19.108  36.996  19.496  1.00  0.00     0.012 A 
HETATM    5  C   LIG     1      19.951  38.110  19.434  1.00  0.00     0.001 A 
HETATM    6  C   LIG     1      19.763  39.183  20.309  1.00  0.00     0.001 A 
HETATM    7  C   LIG     1      18.731  39.150  21.251  1.00  0.00     0.012 A 
HETATM    8  C   LIG     1      17.878  38.039  21.324  1.00  0.00    -0.026 A 
HETATM    9  C   LIG     1      16.839  37.994  22.263  1.00  0.00     0.013 A 
HETATM   10  C   LIG     1      15.995  36.882  22.328  1.00  0.00     0.008 A 
ENDROOT
BRANCH   1  11
HETATM   11  C   LIG     1      15.260  34.604  21.530  1.00  0.00     0.034 C 
HETATM   12  C   LIG     1      15.538  33.623  20.393  1.00  0.00     0.010 C 
ENDBRANCH   1  11
TORSDOF 1
ENDMDL
MODEL 4
REMARK VINA RESULT:      -7.9      2.246      5.241
REMARK  1 active torsions:
REMARK  status: ('A' for Active; 'I' for Inactive)
REMARK    1  A    between atoms: C_2  and  C_3 
ROOT
HETATM    1  C   LIG     1      17.282  37.521  23.554  1.00  0.00    -0.058 A 
HETATM    2  C   LIG     1      17.952  38.531  22.841  1.00  0.00     0.019 A 
HETATM    3  C   LIG     1      18.299  38.338  21.495  1.00  0.00    -0.025 A 
HETATM    4  C   LIG     1      18.964  39.344  20.777  1.00  0.00     0.012 A 
HETATM    5  C   LIG     1      19.305  39.141  19.436  1.00  0.00     0.001 A 
HETATM    6  C   LIG     1      18.986  37.937  18.804  1.00  0.00     0.001 A 
HETATM    7  C   LIG     1      18.323  36.927  19.507  1.00  0.00     0.012 A 
HETATM    8  C   LIG     1      17.975  37.117  20.854  1.00  0.00    -0.026 A 
HETATM    9  C   LIG     1      17.312  36.113  21.571  1.00  0.00     0.013 A 
HETATM   10  C   LIG     1      16.969  36.313  22.910  1.00  0.00     0.008 A 
ENDROOT
BRANCH   1  11
HETATM   11  C   LIG     1      16.913  37.725  25.000  1.00  0.00     0.034 C 
HETATM   12  C   LIG     1      17.954  37.101  25.927  1.00  0.00     0.010 C 
ENDBRANCH   1  11
TORSDOF 1
ENDMDL
MODEL 5
REMARK VINA RESULT:      -7.5      2.920      4.204
REMARK  1 active torsions:
REMARK  status: ('A' for Active; 'I' for Inactive)
REMARK    1  A    between atoms: C_2  and  C_3 
ROOT
HETATM    1  C   LIG     1      19.027  38.628  19.475  1.00  0.00    -0.058 A 
HETATM    2  C   LIG     1      18.557  37.316  19.659  1.00  0.00     0.019 A 
HETATM    3  C   LIG     1      17.934  36.947  20.861  1.00  0.00    -0.025 A 
HETATM    4  C   LIG     1      17.459  35.640  21.049  1.00  0.00     0.012 A 
HETATM    5  C   LIG     1      16.840  35.284  22.251  1.00  0.00     0.001 A 
HETATM    6  C   LIG     1      16.691  36.227  23.272  1.00  0.00     0.001 A 
HETATM    7  C   LIG     1      17.160  37.532  23.097  1.00  0.00     0.012 A 
HETATM    8  C   LIG     1      17.783  37.903  21.896  1.00  0.00    -0.026 A 
HETATM    9  C   LIG     1      18.259  39.208  21.709  1.00  0.00     0.013 A 
HETATM   10  C   LIG     1      18.876  39.567  20.508  1.00  0.00     0.008 A 
ENDROOT
BRANCH   1  11
HETATM   11  C   LIG     1      19.700  39.023  18.186  1.00  0.00     0.034 C 
HETATM   12  C   LIG     1      18.690  39.580  17.185  1.00  0.00     0.010 C 
ENDBRANCH   1  11
TORSDOF 1
ENDMDL
MODEL 6
REMARK VINA RESULT:      -7.4      3.023      4.556
REMARK  1 active torsions:
REMARK  status: ('A' for Active; 'I' for Inactive)
REMARK    1  A    between atoms: C_2  and  C_3 
ROOT
HETATM    1  C   LIG     1      19.032  38.514  19.232  1.00  0.00    -0.058 A 
HETATM    2  C   LIG     1      18.683  39.186  20.416  1.00  0.00     0.019 A 
HETATM    3  C   LIG     1      18.033  38.503  21.455  1.00  0.00    -0.025 A 
HETATM    4  C   LIG     1      17.686  39.168  22.641  1.00  0.00     0.012 A 
HETATM    5  C   LIG     1      17.038  38.477  23.670  1.00  0.00     0.001 A 
HETATM    6  C   LIG     1      16.734  37.121  23.523  1.00  0.00     0.001 A 
HETATM    7  C   LIG     1      17.074  36.447  22.347  1.00  0.00     0.012 A 
HETATM    8  C   LIG     1      17.724  37.128  21.306  1.00  0.00    -0.026 A 
HETATM    9  C   LIG     1      18.070  36.464  20.122  1.00  0.00     0.013 A 
HETATM   10  C   LIG     1      18.718  37.152  19.092  1.00  0.00     0.008 A 
ENDROOT
BRANCH   1  11
HETATM   11  C   LIG     1      19.726  39.248  18.114  1.00  0.00     0.034 C 
HETATM   12  C   LIG     1      18.762  39.543  16.967  1.00  0.00     0.010 C 
ENDBRANCH   1  11
TORSDOF 1
ENDMDL
MODEL 7
REMARK VINA RESULT:      -7.4      2.064      4.534
REMARK  1 active torsions:
REMARK  status: ('A' for Active; 'I' for Inactive)
REMARK    1  A    between atoms: C_2  and  C_3 
ROOT
HETATM    1  C   LIG     1      17.214  36.161  23.308  1.00  0.00    -0.058 A 
HETATM    2  C   LIG     1      17.588  35.925  21.974  1.00  0.00     0.019 A 
HETATM    3  C   LIG     1      18.034  36.980  21.165  1.00  0.00    -0.025 A 
HETATM    4  C   LIG     1      18.412  36.750  19.833  1.00  0.00     0.012 A 
HETATM    5  C   LIG     1      18.855  37.810  19.035  1.00  0.00     0.001 A 
HETATM    6  C   LIG     1      18.923  39.104  19.559  1.00  0.00     0.001 A 
HETATM    7  C   LIG     1      18.549  39.347  20.884  1.00  0.00     0.012 A 
HETATM    8  C   LIG     1      18.103  38.292  21.695  1.00  0.00    -0.026 A 
HETATM    9  C   LIG     1      17.724  38.523  23.025  1.00  0.00     0.013 A 
HETATM   10  C   LIG     1      17.282  37.466  23.824  1.00  0.00     0.008 A 
ENDROOT
BRANCH   1  11
HETATM   11  C   LIG     1      16.731  35.029  24.177  1.00  0.00     0.034 C 
HETATM   12  C   LIG     1      17.495  34.983  25.498  1.00  0.00     0.010 C 
ENDBRANCH   1  11
TORSDOF 1
ENDMDL
MODEL 8
REMARK VINA RESULT:      -6.9      1.378      4.436
REMARK  1 active torsions:
REMARK  status: ('A' for Active; 'I' for Inactive)
REMARK    1  A    between atoms: C_2  and  C_3 
ROOT
HETATM    1  C   LIG     1      17.195  35.618  24.148  1.00  0.00    -0.058 A 
HETATM    2  C   LIG     1      17.623  36.957  24.122  1.00  0.00     0.019 A 
HETATM    3  C   LIG     1      17.856  37.603  22.899  1.00  0.00    -0.025 A 
HETATM    4  C   LIG     1      18.280  38.941  22.866  1.00  0.00     0.012 A 
HETATM    5  C   LIG     1      18.509  39.576  21.641  1.00  0.00     0.001 A 
HETATM    6  C   LIG     1      18.317  38.882  20.443  1.00  0.00     0.001 A 
HETATM    7  C   LIG     1      17.894  37.549  20.462  1.00  0.00     0.012 A 
HETATM    8  C   LIG     1      17.661  36.900  21.684  1.00  0.00    -0.026 A 
HETATM    9  C   LIG     1      17.239  35.565  21.717  1.00  0.00     0.013 A 
HETATM   10  C   LIG     1      17.009  34.928  22.939  1.00  0.00     0.008 A 
ENDROOT
BRANCH   1  11
HETATM   11  C   LIG     1      16.950  34.922  25.462  1.00  0.00     0.034 C 
HETATM   12  C   LIG     1      18.217  34.889  26.313  1.00  0.00     0.010 C 
ENDBRANCH   1  11
TORSDOF 1
ENDMDL
MODEL 9
REMARK VINA RESULT:      -6.7      0.910      4.435
REMARK  1 active torsions:
REMARK  status: ('A' for Active; 'I' for Inactive)
REMARK    1  A    between atoms: C_2  and  C_3 
ROOT
HETATM    1  C   LIG     1      17.550  37.325  24.605  1.00  0.00    -0.058 A 
HETATM    2  C   LIG     1      16.996  36.131  24.112  1.00  0.00     0.019 A 
HETATM    3  C   LIG     1      16.864  35.928  22.730  1.00  0.00    -0.025 A 
HETATM    4  C   LIG     1      16.316  34.736  22.231  1.00  0.00     0.012 A 
HETATM    5  C   LIG     1      16.189  34.544  20.852  1.00  0.00     0.001 A 
HETATM    6  C   LIG     1      16.607  35.538  19.963  1.00  0.00     0.001 A 
HETATM    7  C   LIG     1      17.155  36.729  20.446  1.00  0.00     0.012 A 
HETATM    8  C   LIG     1      17.288  36.935  21.828  1.00  0.00    -0.026 A 
HETATM    9  C   LIG     1      17.834  38.125  22.326  1.00  0.00     0.013 A 
HETATM   10  C   LIG     1      17.963  38.319  23.703  1.00  0.00     0.008 A 
ENDROOT
BRANCH   1  11
HETATM   11  C   LIG     1      17.687  37.546  26.090  1.00  0.00     0.034 C 
HETATM   12  C   LIG     1      18.417  36.381  26.755  1.00  0.00     0.010 C 
ENDBRANCH   1  11
TORSDOF 1
ENDMDL
MODEL 10
REMARK VINA RESULT:      -6.5      1.579      2.341
REMARK  1 active torsions:
REMARK  status: ('A' for Active; 'I' for Inactive)
REMARK    1  A    between atoms: C_2  and  C_3 
ROOT
HETATM    1  C   LIG     1      17.755  37.836  22.107  1.00  0.00    -0.058 A 
HETATM    2  C   LIG     1      17.419  36.561  22.596  1.00  0.00     0.019 A 
HETATM    3  C   LIG     1      17.522  36.277  23.966  1.00  0.00    -0.025 A 
HETATM    4  C   LIG     1      17.184  35.007  24.460  1.00  0.00     0.012 A 
HETATM    5  C   LIG     1      17.290  34.734  25.827  1.00  0.00     0.001 A 
HETATM    6  C   LIG     1      17.733  35.724  26.709  1.00  0.00     0.001 A 
HETATM    7  C   LIG     1      18.072  36.993  26.230  1.00  0.00     0.012 A 
HETATM    8  C   LIG     1      17.971  37.280  24.860  1.00  0.00    -0.026 A 
HETATM    9  C   LIG     1      18.309  38.547  24.367  1.00  0.00     0.013 A 
HETATM   10  C   LIG     1      18.203  38.822  23.001  1.00  0.00     0.008 A 
ENDROOT
BRANCH   1  11
HETATM   11  C   LIG     1      17.650  38.140  20.635  1.00  0.00     0.034 C 
HETATM   12  C   LIG     1      18.686  39.178  20.212  1.00  0.00     0.010 C 
ENDBRANCH   1  11
TORSDOF 1
ENDMDL
MODEL 11
REMARK VINA RESULT:      -6.4      1.385      2.526
REMARK  1 active torsions:
REMARK  status: ('A' for Active; 'I' for Inactive)
REMARK    1  A    between atoms: C_2  and  C_3 
ROOT
HETATM    1  C   LIG     1      17.462  36.426  21.247  1.00  0.00    -0.058 A 
HETATM    2  C   LIG     1      17.669  37.442  22.196  1.00  0.00     0.019 A 
HETATM    3  C   LIG     1      17.603  37.156  23.568  1.00  0.00    -0.025 A 
HETATM    4  C   LIG     1      17.813  38.165  24.521  1.00  0.00     0.012 A 
HETATM    5  C   LIG     1      17.746  37.869  25.885  1.00  0.00     0.001 A 
HETATM    6  C   LIG     1      17.469  36.566  26.309  1.00  0.00     0.001 A 
HETATM    7  C   LIG     1      17.258  35.551  25.370  1.00  0.00     0.012 A 
HETATM    8  C   LIG     1      17.323  35.835  23.998  1.00  0.00    -0.026 A 
HETATM    9  C   LIG     1      17.113  34.828  23.047  1.00  0.00     0.013 A 
HETATM   10  C   LIG     1      17.180  35.121  21.683  1.00  0.00     0.008 A 
ENDROOT
BRANCH   1  11
HETATM   11  C   LIG     1      17.527  36.734  19.774  1.00  0.00     0.034 C 
HETATM   12  C   LIG     1      18.954  37.062  19.342  1.00  0.00     0.010 C 
ENDBRANCH   1  11
TORSDOF 1
ENDMDL
MODEL 12
REMARK VINA RESULT:      -6.4      8.134     10.134
REMARK  1 active torsions:
REMARK  status: ('A' for Active; 'I' for Inactive)
REMARK    1  A    between atoms: C_2  and  C_3 
ROOT
HETATM    1  C   LIG     1      17.140  33.030  14.096  1.00  0.00    -0.058 A 
HETATM    2  C   LIG     1      16.588  33.173  15.380  1.00  0.00     0.019 A 
HETATM    3  C   LIG     1      15.526  32.354  15.792  1.00  0.00    -0.025 A 
HETATM    4  C   LIG     1      14.974  32.489  17.075  1.00  0.00     0.012 A 
HETATM    5  C   LIG     1      13.915  31.668  17.474  1.00  0.00     0.001 A 
HETATM    6  C   LIG     1      13.401  30.707  16.598  1.00  0.00     0.001 A 
HETATM    7  C   LIG     1      13.943  30.562  15.318  1.00  0.00     0.012 A 
HETATM    8  C   LIG     1      15.005  31.380  14.904  1.00  0.00    -0.026 A 
HETATM    9  C   LIG     1      15.556  31.246  13.623  1.00  0.00     0.013 A 
HETATM   10  C   LIG     1      16.614  32.065  13.221  1.00  0.00     0.008 A 
ENDROOT
BRANCH   1  11
HETATM   11  C   LIG     1      18.278  33.913  13.652  1.00  0.00     0.034 C 
HETATM   12  C   LIG     1      18.788  33.502  12.273  1.00  0.00     0.010 C 
ENDBRANCH   1  11
TORSDOF 1
ENDMDL
MODEL 13
REMARK VINA RESULT:      -6.2      5.501      9.926
REMARK  1 active torsions:
REMARK  status: ('A' for Active; 'I' for Inactive)
REMARK    1  A    between atoms: C_2  and  C_3 
ROOT
HETATM    1  C   LIG     1      15.041  32.886  17.745  1.00  0.00    -0.058 A 
HETATM    2  C   LIG     1      15.716  32.982  16.516  1.00  0.00     0.019 A 
HETATM    3  C   LIG     1      15.451  32.066  15.487  1.00  0.00    -0.025 A 
HETATM    4  C   LIG     1      16.119  32.159  14.256  1.00  0.00     0.012 A 
HETATM    5  C   LIG     1      15.847  31.241  13.237  1.00  0.00     0.001 A 
HETATM    6  C   LIG     1      14.908  30.225  13.439  1.00  0.00     0.001 A 
HETATM    7  C   LIG     1      14.235  30.121  14.660  1.00  0.00     0.012 A 
HETATM    8  C   LIG     1      14.499  31.036  15.691  1.00  0.00    -0.026 A 
HETATM    9  C   LIG     1      13.833  30.942  16.920  1.00  0.00     0.013 A 
HETATM   10  C   LIG     1      14.102  31.859  17.939  1.00  0.00     0.008 A 
ENDROOT
BRANCH   1  11
HETATM   11  C   LIG     1      15.329  33.866  18.852  1.00  0.00     0.034 C 
HETATM   12  C   LIG     1      15.465  33.154  20.197  1.00  0.00     0.010 C 
ENDBRANCH   1  11
TORSDOF 1
ENDMDL
MODEL 14
REMARK VINA RESULT:      -6.2      8.420     10.413
REMARK  1 active torsions:
REMARK  status: ('A' for Active; 'I' for Inactive)
REMARK    1  A    between atoms: C_2  and  C_3 
ROOT
HETATM    1  C   LIG     1      17.040  33.081  14.639  1.00  0.00    -0.058 A 
HETATM    2  C   LIG     1      16.470  31.961  14.010  1.00  0.00     0.019 A 
HETATM    3  C   LIG     1      15.343  31.335  14.562  1.00  0.00    -0.025 A 
HETATM    4  C   LIG     1      14.766  30.218  13.937  1.00  0.00     0.012 A 
HETATM    5  C   LIG     1      13.643  29.601  14.496  1.00  0.00     0.001 A 
HETATM    6  C   LIG     1      13.087  30.093  15.680  1.00  0.00     0.001 A 
HETATM    7  C   LIG     1      13.652  31.205  16.314  1.00  0.00     0.012 A 
HETATM    8  C   LIG     1      14.779  31.833  15.763  1.00  0.00    -0.026 A 
HETATM    9  C   LIG     1      15.355  32.946  16.389  1.00  0.00     0.013 A 
HETATM   10  C   LIG     1      16.477  33.565  15.832  1.00  0.00     0.008 A 
ENDROOT
BRANCH   1  11
HETATM   11  C   LIG     1      18.254  33.751  14.050  1.00  0.00     0.034 C 
HETATM   12  C   LIG     1      18.348  33.498  12.547  1.00  0.00     0.010 C 
ENDBRANCH   1  11
TORSDOF 1
ENDMDL
MODEL 15
REMARK VINA RESULT:      -6.0      8.092     10.284
REMARK  1 active torsions:
REMARK  status: ('A' for Active; 'I' for Inactive)
REMARK    1  A    between atoms: C_2  and  C_3 
ROOT
HETATM    1  C   LIG     1      13.831  29.809  14.760  1.00  0.00    -0.058 A 
HETATM    2  C   LIG     1      14.968  30.477  14.274  1.00  0.00     0.019 A 
HETATM    3  C   LIG     1      15.417  31.654  14.892  1.00  0.00    -0.025 A 
HETATM    4  C   LIG     1      16.554  32.324  14.414  1.00  0.00     0.012 A 
HETATM    5  C   LIG     1      16.993  33.496  15.037  1.00  0.00     0.001 A 
HETATM    6  C   LIG     1      16.302  34.007  16.140  1.00  0.00     0.001 A 
HETATM    7  C   LIG     1      15.168  33.350  16.626  1.00  0.00     0.012 A 
HETATM    8  C   LIG     1      14.717  32.172  16.009  1.00  0.00    -0.026 A 
HETATM    9  C   LIG     1      13.581  31.504  16.486  1.00  0.00     0.013 A 
HETATM   10  C   LIG     1      13.141  30.333  15.865  1.00  0.00     0.008 A 
ENDROOT
BRANCH   1  11
HETATM   11  C   LIG     1      13.345  28.547  14.094  1.00  0.00     0.034 C 
HETATM   12  C   LIG     1      14.516  27.679  13.638  1.00  0.00     0.010 C 
ENDBRANCH   1  11
TORSDOF 1
ENDMDL
MODEL 16
REMARK VINA RESULT:      -6.0      7.661     10.358
REMARK  1 active torsions:
REMARK  status: ('A' for Active; 'I' for Inactive)
REMARK    1  A    between atoms: C_2  and  C_3 
ROOT
HETATM    1  C   LIG     1      13.850  29.562  14.427  1.00  0.00    -0.058 A 
HETATM    2  C   LIG     1      13.465  30.338  15.533  1.00  0.00     0.019 A 
HETATM    3  C   LIG     1      14.215  31.463  15.907  1.00  0.00    -0.025 A 
HETATM    4  C   LIG     1      13.832  32.245  17.008  1.00  0.00     0.012 A 
HETATM    5  C   LIG     1      14.588  33.363  17.372  1.00  0.00     0.001 A 
HETATM    6  C   LIG     1      15.728  33.710  16.641  1.00  0.00     0.001 A 
HETATM    7  C   LIG     1      16.120  32.940  15.542  1.00  0.00     0.012 A 
HETATM    8  C   LIG     1      15.371  31.814  15.167  1.00  0.00    -0.026 A 
HETATM    9  C   LIG     1      15.754  31.033  14.068  1.00  0.00     0.013 A 
HETATM   10  C   LIG     1      15.000  29.916  13.702  1.00  0.00     0.008 A 
ENDROOT
BRANCH   1  11
HETATM   11  C   LIG     1      13.048  28.351  14.027  1.00  0.00     0.034 C 
HETATM   12  C   LIG     1      13.944  27.267  13.432  1.00  0.00     0.010 C 
ENDBRANCH   1  11
TORSDOF 1
ENDMDL
MODEL 17
REMARK VINA RESULT:      -5.8      7.112     10.032
REMARK  1 active torsions:
REMARK  status: ('A' for Active; 'I' for Inactive)
REMARK    1  A    between atoms: C_2  and  C_3 
ROOT
HETATM    1  C   LIG     1      14.627  31.690  16.596  1.00  0.00    -0.058 A 
HETATM    2  C   LIG     1      15.567  32.731  16.509  1.00  0.00     0.019 A 
HETATM    3  C   LIG     1      16.281  32.945  15.320  1.00  0.00    -0.025 A 
HETATM    4  C   LIG     1      17.218  33.985  15.225  1.00  0.00     0.012 A 
HETATM    5  C   LIG     1      17.924  34.189  14.035  1.00  0.00     0.001 A 
HETATM    6  C   LIG     1      17.700  33.357  12.934  1.00  0.00     0.001 A 
HETATM    7  C   LIG     1      16.769  32.318  13.015  1.00  0.00     0.012 A 
HETATM    8  C   LIG     1      16.054  32.103  14.203  1.00  0.00    -0.026 A 
HETATM    9  C   LIG     1      15.119  31.063  14.298  1.00  0.00     0.013 A 
HETATM   10  C   LIG     1      14.412  30.858  15.485  1.00  0.00     0.008 A 
ENDROOT
BRANCH   1  11
HETATM   11  C   LIG     1      13.863  31.457  17.874  1.00  0.00     0.034 C 
HETATM   12  C   LIG     1      14.720  31.784  19.095  1.00  0.00     0.010 C 
ENDBRANCH   1  11
TORSDOF 1
ENDMDL
MODEL 18
REMARK VINA RESULT:      -5.7      7.701     11.751
REMARK  1 active torsions:
REMARK  status: ('A' for Active; 'I' for Inactive)
REMARK    1  A    between atoms: C_2  and  C_3 
ROOT
HETATM    1  C   LIG     1      15.009  31.709  15.503  1.00  0.00    -0.058 A 
HETATM    2  C   LIG     1      15.656  30.721  14.742  1.00  0.00     0.019 A 
HETATM    3  C   LIG     1      14.955  29.583  14.315  1.00  0.00    -0.025 A 
HETATM    4  C   LIG     1      15.595  28.594  13.551  1.00  0.00     0.012 A 
HETATM    5  C   LIG     1      14.887  27.464  13.130  1.00  0.00     0.001 A 
HETATM    6  C   LIG     1      13.539  27.313  13.467  1.00  0.00     0.001 A 
HETATM    7  C   LIG     1      12.890  28.290  14.227  1.00  0.00     0.012 A 
HETATM    8  C   LIG     1      13.589  29.429  14.656  1.00  0.00    -0.026 A 
HETATM    9  C   LIG     1      12.950  30.416  15.419  1.00  0.00     0.013 A 
HETATM   10  C   LIG     1      13.655  31.546  15.840  1.00  0.00     0.008 A 
ENDROOT
BRANCH   1  11
HETATM   11  C   LIG     1      15.762  32.929  15.967  1.00  0.00     0.034 C 
HETATM   12  C   LIG     1      14.987  33.675  17.052  1.00  0.00     0.010 C 
ENDBRANCH   1  11
TORSDOF 1
ENDMDL
MODEL 19
REMARK VINA RESULT:      -5.5      8.237     10.160
REMARK  1 active torsions:
REMARK  status: ('A' for Active; 'I' for Inactive)
REMARK    1  A    between atoms: C_2  and  C_3 
ROOT
HETATM    1  C   LIG     1      14.375  31.228  15.642  1.00  0.00    -0.058 A 
HETATM    2  C   LIG     1      15.148  31.270  14.468  1.00  0.00     0.019 A 
HETATM    3  C   LIG     1      16.109  32.276  14.288  1.00  0.00    -0.025 A 
HETATM    4  C   LIG     1      16.887  32.322  13.120  1.00  0.00     0.012 A 
HETATM    5  C   LIG     1      17.842  33.329  12.951  1.00  0.00     0.001 A 
HETATM    6  C   LIG     1      18.028  34.295  13.943  1.00  0.00     0.001 A 
HETATM    7  C   LIG     1      17.261  34.261  15.111  1.00  0.00     0.012 A 
HETATM    8  C   LIG     1      16.298  33.256  15.293  1.00  0.00    -0.026 A 
HETATM    9  C   LIG     1      15.521  33.212  16.459  1.00  0.00     0.013 A 
HETATM   10  C   LIG     1      14.567  32.206  16.631  1.00  0.00     0.008 A 
ENDROOT
BRANCH   1  11
HETATM   11  C   LIG     1      13.339  30.151  15.834  1.00  0.00     0.034 C 
HETATM   12  C   LIG     1      13.112  29.368  14.543  1.00  0.00     0.010 C 
ENDBRANCH   1  11
TORSDOF 1
ENDMDL
