REMARK  5 active torsions:
REMARK  status: ('A' for Active; 'I' for Inactive)
REMARK    1  A    between atoms: C_2  and  C_3 
REMARK    2  A    between atoms: C_2  and  O_10 
REMARK    3  A    between atoms: C_8  and  N_9 
REMARK    4  A    between atoms: O_10  and  C_11 
REMARK    5  A    between atoms: C_11  and  C_12 
ROOT
HETATM    1  C   LIG     1       1.081  -0.034  -0.349  1.00  0.00     0.039 A 
HETATM    2  C   LIG     1       1.537   0.699   0.760  1.00  0.00     0.020 A 
HETATM    3  C   LIG     1       2.873   0.617   1.163  1.00  0.00     0.030 A 
HETATM    4  C   LIG     1       1.990  -0.852  -1.046  1.00  0.00     0.020 A 
HETATM    5  C   LIG     1       3.325  -0.932  -0.641  1.00  0.00     0.030 A 
HETATM    6  C   LIG     1       3.773  -0.199   0.465  1.00  0.00     0.025 A 
ENDROOT
BRANCH   1   7
HETATM    7  C   LIG     1      -0.334   0.055  -0.773  1.00  0.00     0.293 C 
HETATM    8  O   LIG     1      -0.739  -0.606  -1.769  1.00  0.00    -0.259 OA
BRANCH   7   9
HETATM    9  O   LIG     1      -1.221   0.880  -0.069  1.00  0.00    -0.318 OA
BRANCH   9  10
HETATM   10  C   LIG     1      -2.610   0.982  -0.373  1.00  0.00     0.178 C 
BRANCH  10  11
HETATM   11  C   LIG     1      -3.363  -0.249   0.138  1.00  0.00     0.022 C 
HETATM   12  C   LIG     1      -4.860  -0.133  -0.132  1.00  0.00     0.007 C 
ENDBRANCH  10  11
ENDBRANCH   9  10
ENDBRANCH   7   9
ENDBRANCH   1   7
BRANCH   6  13
HETATM   13  N   LIG     1       5.140  -0.282   0.879  1.00  0.00    -0.399 N 
HETATM   14  H   LIG     1       5.483   0.261   1.702  1.00  0.00     0.156 HD
HETATM   15  H   LIG     1       5.818  -0.887   0.365  1.00  0.00     0.156 HD
ENDBRANCH   6  13
TORSDOF 5
