MODEL 1
REMARK VINA RESULT:      -7.6      0.000      0.000
REMARK  5 active torsions:
REMARK  status: ('A' for Active; 'I' for Inactive)
REMARK    1  A    between atoms: C_2  and  C_3 
REMARK    2  A    between atoms: C_2  and  O_10 
REMARK    3  A    between atoms: C_8  and  N_9 
REMARK    4  A    between atoms: O_10  and  C_11 
REMARK    5  A    between atoms: C_11  and  C_12 
ROOT
HETATM    1  C   LIG     1      17.650  37.618  21.617  1.00  0.00     0.039 A 
HETATM    2  C   LIG     1      18.130  36.865  20.531  1.00  0.00     0.020 A 
HETATM    3  C   LIG     1      19.031  37.428  19.623  1.00  0.00     0.030 A 
HETATM    4  C   LIG     1      18.091  38.945  21.774  1.00  0.00     0.020 A 
HETATM    5  C   LIG     1      18.992  39.504  20.865  1.00  0.00     0.030 A 
HETATM    6  C   LIG     1      19.466  38.749  19.785  1.00  0.00     0.025 A 
ENDROOT
BRANCH   1   7
HETATM    7  C   LIG     1      16.696  37.020  22.577  1.00  0.00     0.293 C 
HETATM    8  O   LIG     1      15.463  36.989  22.307  1.00  0.00    -0.259 OA
BRANCH   7   9
HETATM    9  O   LIG     1      17.164  36.493  23.788  1.00  0.00    -0.318 OA
BRANCH   9  10
HETATM   10  C   LIG     1      17.220  37.240  25.001  1.00  0.00     0.178 C 
BRANCH  10  11
HETATM   11  C   LIG     1      18.151  36.559  26.007  1.00  0.00     0.022 C 
HETATM   12  C   LIG     1      17.917  35.053  26.046  1.00  0.00     0.007 C 
ENDBRANCH  10  11
ENDBRANCH   9  10
ENDBRANCH   7   9
ENDBRANCH   1   7
BRANCH   6  13
HETATM   13  N   LIG     1      20.389  39.323  18.854  1.00  0.00    -0.399 N 
HETATM   14  H   LIG     1      20.515  40.358  18.795  1.00  0.00     0.156 HD
HETATM   15  H   LIG     1      20.952  38.717  18.217  1.00  0.00     0.156 HD
ENDBRANCH   6  13
TORSDOF 5
ENDMDL
MODEL 2
REMARK VINA RESULT:      -7.0      2.071      3.128
REMARK  5 active torsions:
REMARK  status: ('A' for Active; 'I' for Inactive)
REMARK    1  A    between atoms: C_2  and  C_3 
REMARK    2  A    between atoms: C_2  and  O_10 
REMARK    3  A    between atoms: C_8  and  N_9 
REMARK    4  A    between atoms: O_10  and  C_11 
REMARK    5  A    between atoms: C_11  and  C_12 
ROOT
HETATM    1  C   LIG     1      17.575  37.358  21.262  1.00  0.00     0.039 A 
HETATM    2  C   LIG     1      18.251  36.675  20.236  1.00  0.00     0.020 A 
HETATM    3  C   LIG     1      19.229  37.324  19.477  1.00  0.00     0.030 A 
HETATM    4  C   LIG     1      17.899  38.705  21.512  1.00  0.00     0.020 A 
HETATM    5  C   LIG     1      18.877  39.351  20.752  1.00  0.00     0.030 A 
HETATM    6  C   LIG     1      19.547  38.665  19.731  1.00  0.00     0.025 A 
ENDROOT
BRANCH   1   7
HETATM    7  C   LIG     1      16.540  36.668  22.063  1.00  0.00     0.293 C 
HETATM    8  O   LIG     1      15.739  37.337  22.773  1.00  0.00    -0.259 OA
BRANCH   7   9
HETATM    9  O   LIG     1      16.457  35.269  22.037  1.00  0.00    -0.318 OA
BRANCH   9  10
HETATM   10  C   LIG     1      15.350  34.558  21.489  1.00  0.00     0.178 C 
BRANCH  10  11
HETATM   11  C   LIG     1      15.693  34.021  20.097  1.00  0.00     0.022 C 
HETATM   12  C   LIG     1      15.292  32.556  19.955  1.00  0.00     0.007 C 
ENDBRANCH  10  11
ENDBRANCH   9  10
ENDBRANCH   7   9
ENDBRANCH   1   7
BRANCH   6  13
HETATM   13  N   LIG     1      20.548  39.328  18.953  1.00  0.00    -0.399 N 
HETATM   14  H   LIG     1      20.645  40.367  18.981  1.00  0.00     0.156 HD
HETATM   15  H   LIG     1      21.199  38.784  18.345  1.00  0.00     0.156 HD
ENDBRANCH   6  13
TORSDOF 5
ENDMDL
MODEL 3
REMARK VINA RESULT:      -6.9      2.731      3.355
REMARK  5 active torsions:
REMARK  status: ('A' for Active; 'I' for Inactive)
REMARK    1  A    between atoms: C_2  and  C_3 
REMARK    2  A    between atoms: C_2  and  O_10 
REMARK    3  A    between atoms: C_8  and  N_9 
REMARK    4  A    between atoms: O_10  and  C_11 
REMARK    5  A    between atoms: C_11  and  C_12 
ROOT
HETATM    1  C   LIG     1      16.370  36.987  22.466  1.00  0.00     0.039 A 
HETATM    2  C   LIG     1      15.070  36.508  22.231  1.00  0.00     0.020 A 
HETATM    3  C   LIG     1      14.805  35.688  21.130  1.00  0.00     0.030 A 
HETATM    4  C   LIG     1      17.400  36.629  21.575  1.00  0.00     0.020 A 
HETATM    5  C   LIG     1      17.132  35.809  20.476  1.00  0.00     0.030 A 
HETATM    6  C   LIG     1      15.834  35.335  20.248  1.00  0.00     0.025 A 
ENDROOT
BRANCH   1   7
HETATM    7  C   LIG     1      16.648  37.855  23.632  1.00  0.00     0.293 C 
HETATM    8  O   LIG     1      16.769  39.102  23.478  1.00  0.00    -0.259 OA
BRANCH   7   9
HETATM    9  O   LIG     1      16.782  37.287  24.906  1.00  0.00    -0.318 OA
BRANCH   9  10
HETATM   10  C   LIG     1      17.956  37.417  25.705  1.00  0.00     0.178 C 
BRANCH  10  11
HETATM   11  C   LIG     1      18.332  36.070  26.328  1.00  0.00     0.022 C 
HETATM   12  C   LIG     1      17.476  34.941  25.763  1.00  0.00     0.007 C 
ENDBRANCH  10  11
ENDBRANCH   9  10
ENDBRANCH   7   9
ENDBRANCH   1   7
BRANCH   6  13
HETATM   13  N   LIG     1      15.560  34.496  19.121  1.00  0.00    -0.399 N 
HETATM   14  H   LIG     1      15.614  34.873  18.149  1.00  0.00     0.156 HD
HETATM   15  H   LIG     1      15.302  33.493  19.253  1.00  0.00     0.156 HD
ENDBRANCH   6  13
TORSDOF 5
ENDMDL
MODEL 4
REMARK VINA RESULT:      -6.7      2.833      5.006
REMARK  5 active torsions:
REMARK  status: ('A' for Active; 'I' for Inactive)
REMARK    1  A    between atoms: C_2  and  C_3 
REMARK    2  A    between atoms: C_2  and  O_10 
REMARK    3  A    between atoms: C_8  and  N_9 
REMARK    4  A    between atoms: O_10  and  C_11 
REMARK    5  A    between atoms: C_11  and  C_12 
ROOT
HETATM    1  C   LIG     1      17.019  36.130  22.137  1.00  0.00     0.039 A 
HETATM    2  C   LIG     1      17.185  35.243  23.214  1.00  0.00     0.020 A 
HETATM    3  C   LIG     1      17.277  35.726  24.523  1.00  0.00     0.030 A 
HETATM    4  C   LIG     1      16.947  37.511  22.396  1.00  0.00     0.020 A 
HETATM    5  C   LIG     1      17.039  37.992  23.705  1.00  0.00     0.030 A 
HETATM    6  C   LIG     1      17.205  37.103  24.774  1.00  0.00     0.025 A 
ENDROOT
BRANCH   1   7
HETATM    7  C   LIG     1      16.922  35.614  20.753  1.00  0.00     0.293 C 
HETATM    8  O   LIG     1      16.276  34.556  20.515  1.00  0.00    -0.259 OA
BRANCH   7   9
HETATM    9  O   LIG     1      17.554  36.302  19.709  1.00  0.00    -0.318 OA
BRANCH   9  10
HETATM   10  C   LIG     1      18.921  36.704  19.745  1.00  0.00     0.178 C 
BRANCH  10  11
HETATM   11  C   LIG     1      19.087  38.097  19.132  1.00  0.00     0.022 C 
HETATM   12  C   LIG     1      19.416  39.135  20.200  1.00  0.00     0.007 C 
ENDBRANCH  10  11
ENDBRANCH   9  10
ENDBRANCH   7   9
ENDBRANCH   1   7
BRANCH   6  13
HETATM   13  N   LIG     1      17.299  37.596  26.114  1.00  0.00    -0.399 N 
HETATM   14  H   LIG     1      16.565  37.368  26.820  1.00  0.00     0.156 HD
HETATM   15  H   LIG     1      18.104  38.193  26.408  1.00  0.00     0.156 HD
ENDBRANCH   6  13
TORSDOF 5
ENDMDL
MODEL 5
REMARK VINA RESULT:      -6.5      8.532      9.664
REMARK  5 active torsions:
REMARK  status: ('A' for Active; 'I' for Inactive)
REMARK    1  A    between atoms: C_2  and  C_3 
REMARK    2  A    between atoms: C_2  and  O_10 
REMARK    3  A    between atoms: C_8  and  N_9 
REMARK    4  A    between atoms: O_10  and  C_11 
REMARK    5  A    between atoms: C_11  and  C_12 
ROOT
HETATM    1  C   LIG     1      14.867  31.642  15.722  1.00  0.00     0.039 A 
HETATM    2  C   LIG     1      15.412  30.970  14.615  1.00  0.00     0.020 A 
HETATM    3  C   LIG     1      14.699  29.944  13.987  1.00  0.00     0.030 A 
HETATM    4  C   LIG     1      13.594  31.266  16.190  1.00  0.00     0.020 A 
HETATM    5  C   LIG     1      12.884  30.240  15.561  1.00  0.00     0.030 A 
HETATM    6  C   LIG     1      13.432  29.574  14.458  1.00  0.00     0.025 A 
ENDROOT
BRANCH   1   7
HETATM    7  C   LIG     1      15.625  32.727  16.384  1.00  0.00     0.293 C 
HETATM    8  O   LIG     1      16.037  33.713  15.712  1.00  0.00    -0.259 OA
BRANCH   7   9
HETATM    9  O   LIG     1      15.889  32.654  17.758  1.00  0.00    -0.318 OA
BRANCH   9  10
HETATM   10  C   LIG     1      15.211  33.443  18.733  1.00  0.00     0.178 C 
BRANCH  10  11
HETATM   11  C   LIG     1      15.262  32.763  20.103  1.00  0.00     0.022 C 
HETATM   12  C   LIG     1      14.864  31.293  20.006  1.00  0.00     0.007 C 
ENDBRANCH  10  11
ENDBRANCH   9  10
ENDBRANCH   7   9
ENDBRANCH   1   7
BRANCH   6  13
HETATM   13  N   LIG     1      12.703  28.524  13.814  1.00  0.00    -0.399 N 
HETATM   14  H   LIG     1      11.693  28.642  13.578  1.00  0.00     0.156 HD
HETATM   15  H   LIG     1      13.169  27.623  13.571  1.00  0.00     0.156 HD
ENDBRANCH   6  13
TORSDOF 5
ENDMDL
MODEL 6
REMARK VINA RESULT:      -6.4      2.903      4.659
REMARK  5 active torsions:
REMARK  status: ('A' for Active; 'I' for Inactive)
REMARK    1  A    between atoms: C_2  and  C_3 
REMARK    2  A    between atoms: C_2  and  O_10 
REMARK    3  A    between atoms: C_8  and  N_9 
REMARK    4  A    between atoms: O_10  and  C_11 
REMARK    5  A    between atoms: C_11  and  C_12 
ROOT
HETATM    1  C   LIG     1      16.434  36.705  22.619  1.00  0.00     0.039 A 
HETATM    2  C   LIG     1      17.203  35.549  22.402  1.00  0.00     0.020 A 
HETATM    3  C   LIG     1      16.706  34.504  21.617  1.00  0.00     0.030 A 
HETATM    4  C   LIG     1      15.157  36.793  22.036  1.00  0.00     0.020 A 
HETATM    5  C   LIG     1      14.662  35.748  21.252  1.00  0.00     0.030 A 
HETATM    6  C   LIG     1      15.434  34.598  21.039  1.00  0.00     0.025 A 
ENDROOT
BRANCH   1   7
HETATM    7  C   LIG     1      16.963  37.809  23.451  1.00  0.00     0.293 C 
HETATM    8  O   LIG     1      16.432  38.073  24.565  1.00  0.00    -0.259 OA
BRANCH   7   9
HETATM    9  O   LIG     1      18.052  38.564  22.994  1.00  0.00    -0.318 OA
BRANCH   9  10
HETATM   10  C   LIG     1      18.046  39.291  21.768  1.00  0.00     0.178 C 
BRANCH  10  11
HETATM   11  C   LIG     1      19.249  38.899  20.906  1.00  0.00     0.022 C 
HETATM   12  C   LIG     1      18.891  37.779  19.935  1.00  0.00     0.007 C 
ENDBRANCH  10  11
ENDBRANCH   9  10
ENDBRANCH   7   9
ENDBRANCH   1   7
BRANCH   6  13
HETATM   13  N   LIG     1      14.926  33.528  20.236  1.00  0.00    -0.399 N 
HETATM   14  H   LIG     1      14.146  33.690  19.562  1.00  0.00     0.156 HD
HETATM   15  H   LIG     1      15.328  32.568  20.311  1.00  0.00     0.156 HD
ENDBRANCH   6  13
TORSDOF 5
ENDMDL
MODEL 7
REMARK VINA RESULT:      -6.3      8.109      9.249
REMARK  5 active torsions:
REMARK  status: ('A' for Active; 'I' for Inactive)
REMARK    1  A    between atoms: C_2  and  C_3 
REMARK    2  A    between atoms: C_2  and  O_10 
REMARK    3  A    between atoms: C_8  and  N_9 
REMARK    4  A    between atoms: O_10  and  C_11 
REMARK    5  A    between atoms: C_11  and  C_12 
ROOT
HETATM    1  C   LIG     1      14.773  32.052  16.084  1.00  0.00     0.039 A 
HETATM    2  C   LIG     1      13.558  31.437  16.431  1.00  0.00     0.020 A 
HETATM    3  C   LIG     1      13.073  30.356  15.689  1.00  0.00     0.030 A 
HETATM    4  C   LIG     1      15.494  31.562  14.979  1.00  0.00     0.020 A 
HETATM    5  C   LIG     1      15.007  30.482  14.239  1.00  0.00     0.030 A 
HETATM    6  C   LIG     1      13.795  29.874  14.589  1.00  0.00     0.025 A 
ENDROOT
BRANCH   1   7
HETATM    7  C   LIG     1      15.284  33.196  16.872  1.00  0.00     0.293 C 
HETATM    8  O   LIG     1      15.272  34.358  16.380  1.00  0.00    -0.259 OA
BRANCH   7   9
HETATM    9  O   LIG     1      15.785  32.984  18.163  1.00  0.00    -0.318 OA
BRANCH   9  10
HETATM   10  C   LIG     1      15.359  33.725  19.304  1.00  0.00     0.178 C 
BRANCH  10  11
HETATM   11  C   LIG     1      14.985  32.781  20.449  1.00  0.00     0.022 C 
HETATM   12  C   LIG     1      14.888  31.337  19.966  1.00  0.00     0.007 C 
ENDBRANCH  10  11
ENDBRANCH   9  10
ENDBRANCH   7   9
ENDBRANCH   1   7
BRANCH   6  13
HETATM   13  N   LIG     1      13.297  28.767  13.831  1.00  0.00    -0.399 N 
HETATM   14  H   LIG     1      13.939  28.012  13.504  1.00  0.00     0.156 HD
HETATM   15  H   LIG     1      12.284  28.697  13.590  1.00  0.00     0.156 HD
ENDBRANCH   6  13
TORSDOF 5
ENDMDL
MODEL 8
REMARK VINA RESULT:      -6.3      8.894     10.824
REMARK  5 active torsions:
REMARK  status: ('A' for Active; 'I' for Inactive)
REMARK    1  A    between atoms: C_2  and  C_3 
REMARK    2  A    between atoms: C_2  and  O_10 
REMARK    3  A    between atoms: C_8  and  N_9 
REMARK    4  A    between atoms: O_10  and  C_11 
REMARK    5  A    between atoms: C_11  and  C_12 
ROOT
HETATM    1  C   LIG     1      15.158  31.615  15.505  1.00  0.00     0.039 A 
HETATM    2  C   LIG     1      15.561  30.854  14.395  1.00  0.00     0.020 A 
HETATM    3  C   LIG     1      14.727  29.859  13.877  1.00  0.00     0.030 A 
HETATM    4  C   LIG     1      13.902  31.360  16.087  1.00  0.00     0.020 A 
HETATM    5  C   LIG     1      13.070  30.365  15.567  1.00  0.00     0.030 A 
HETATM    6  C   LIG     1      13.478  29.610  14.460  1.00  0.00     0.025 A 
ENDROOT
BRANCH   1   7
HETATM    7  C   LIG     1      16.044  32.668  16.051  1.00  0.00     0.293 C 
HETATM    8  O   LIG     1      15.670  33.360  17.038  1.00  0.00    -0.259 OA
BRANCH   7   9
HETATM    9  O   LIG     1      17.296  32.896  15.466  1.00  0.00    -0.318 OA
BRANCH   9  10
HETATM   10  C   LIG     1      17.581  34.016  14.630  1.00  0.00     0.178 C 
BRANCH  10  11
HETATM   11  C   LIG     1      17.930  33.553  13.214  1.00  0.00     0.022 C 
HETATM   12  C   LIG     1      19.399  33.810  12.894  1.00  0.00     0.007 C 
ENDBRANCH  10  11
ENDBRANCH   9  10
ENDBRANCH   7   9
ENDBRANCH   1   7
BRANCH   6  13
HETATM   13  N   LIG     1      12.625  28.591  13.929  1.00  0.00    -0.399 N 
HETATM   14  H   LIG     1      12.625  27.629  14.335  1.00  0.00     0.156 HD
HETATM   15  H   LIG     1      11.989  28.792  13.126  1.00  0.00     0.156 HD
ENDBRANCH   6  13
TORSDOF 5
ENDMDL
MODEL 9
REMARK VINA RESULT:      -6.2      3.495      4.924
REMARK  5 active torsions:
REMARK  status: ('A' for Active; 'I' for Inactive)
REMARK    1  A    between atoms: C_2  and  C_3 
REMARK    2  A    between atoms: C_2  and  O_10 
REMARK    3  A    between atoms: C_8  and  N_9 
REMARK    4  A    between atoms: O_10  and  C_11 
REMARK    5  A    between atoms: C_11  and  C_12 
ROOT
HETATM    1  C   LIG     1      16.606  36.016  21.143  1.00  0.00     0.039 A 
HETATM    2  C   LIG     1      17.688  36.320  20.298  1.00  0.00     0.020 A 
HETATM    3  C   LIG     1      18.433  37.486  20.492  1.00  0.00     0.030 A 
HETATM    4  C   LIG     1      16.285  36.906  22.185  1.00  0.00     0.020 A 
HETATM    5  C   LIG     1      17.032  38.071  22.377  1.00  0.00     0.030 A 
HETATM    6  C   LIG     1      18.108  38.368  21.532  1.00  0.00     0.025 A 
ENDROOT
BRANCH   1   7
HETATM    7  C   LIG     1      15.820  34.780  20.935  1.00  0.00     0.293 C 
HETATM    8  O   LIG     1      14.971  34.418  21.796  1.00  0.00    -0.259 OA
BRANCH   7   9
HETATM    9  O   LIG     1      16.024  34.011  19.782  1.00  0.00    -0.318 OA
BRANCH   9  10
HETATM   10  C   LIG     1      15.318  32.803  19.506  1.00  0.00     0.178 C 
BRANCH  10  11
HETATM   11  C   LIG     1      15.177  32.597  17.996  1.00  0.00     0.022 C 
HETATM   12  C   LIG     1      14.018  31.659  17.672  1.00  0.00     0.007 C 
ENDBRANCH  10  11
ENDBRANCH   9  10
ENDBRANCH   7   9
ENDBRANCH   1   7
BRANCH   6  13
HETATM   13  N   LIG     1      18.872  39.562  21.728  1.00  0.00    -0.399 N 
HETATM   14  H   LIG     1      18.530  40.480  21.368  1.00  0.00     0.156 HD
HETATM   15  H   LIG     1      19.784  39.535  22.236  1.00  0.00     0.156 HD
ENDBRANCH   6  13
TORSDOF 5
ENDMDL
MODEL 10
REMARK VINA RESULT:      -6.1      3.587      5.016
REMARK  5 active torsions:
REMARK  status: ('A' for Active; 'I' for Inactive)
REMARK    1  A    between atoms: C_2  and  C_3 
REMARK    2  A    between atoms: C_2  and  O_10 
REMARK    3  A    between atoms: C_8  and  N_9 
REMARK    4  A    between atoms: O_10  and  C_11 
REMARK    5  A    between atoms: C_11  and  C_12 
ROOT
HETATM    1  C   LIG     1      16.988  36.495  21.852  1.00  0.00     0.039 A 
HETATM    2  C   LIG     1      16.905  35.654  22.975  1.00  0.00     0.020 A 
HETATM    3  C   LIG     1      17.079  36.171  24.262  1.00  0.00     0.030 A 
HETATM    4  C   LIG     1      17.250  37.865  22.044  1.00  0.00     0.020 A 
HETATM    5  C   LIG     1      17.424  38.378  23.332  1.00  0.00     0.030 A 
HETATM    6  C   LIG     1      17.340  37.535  24.447  1.00  0.00     0.025 A 
ENDROOT
BRANCH   1   7
HETATM    7  C   LIG     1      16.803  35.945  20.491  1.00  0.00     0.293 C 
HETATM    8  O   LIG     1      17.712  36.078  19.625  1.00  0.00    -0.259 OA
BRANCH   7   9
HETATM    9  O   LIG     1      15.613  35.281  20.164  1.00  0.00    -0.318 OA
BRANCH   9  10
HETATM   10  C   LIG     1      15.573  34.019  19.501  1.00  0.00     0.178 C 
BRANCH  10  11
HETATM   11  C   LIG     1      15.159  32.914  20.476  1.00  0.00     0.022 C 
HETATM   12  C   LIG     1      14.919  31.595  19.747  1.00  0.00     0.007 C 
ENDBRANCH  10  11
ENDBRANCH   9  10
ENDBRANCH   7   9
ENDBRANCH   1   7
BRANCH   6  13
HETATM   13  N   LIG     1      17.518  38.062  25.765  1.00  0.00    -0.399 N 
HETATM   14  H   LIG     1      17.128  38.995  26.024  1.00  0.00     0.156 HD
HETATM   15  H   LIG     1      18.041  37.523  26.489  1.00  0.00     0.156 HD
ENDBRANCH   6  13
TORSDOF 5
ENDMDL
MODEL 11
REMARK VINA RESULT:      -6.1      9.196     10.837
REMARK  5 active torsions:
REMARK  status: ('A' for Active; 'I' for Inactive)
REMARK    1  A    between atoms: C_2  and  C_3 
REMARK    2  A    between atoms: C_2  and  O_10 
REMARK    3  A    between atoms: C_8  and  N_9 
REMARK    4  A    between atoms: O_10  and  C_11 
REMARK    5  A    between atoms: C_11  and  C_12 
ROOT
HETATM    1  C   LIG     1      15.776  32.055  15.110  1.00  0.00     0.039 A 
HETATM    2  C   LIG     1      15.217  30.928  14.483  1.00  0.00     0.020 A 
HETATM    3  C   LIG     1      14.069  30.324  15.004  1.00  0.00     0.030 A 
HETATM    4  C   LIG     1      15.163  32.564  16.270  1.00  0.00     0.020 A 
HETATM    5  C   LIG     1      14.015  31.959  16.788  1.00  0.00     0.030 A 
HETATM    6  C   LIG     1      13.463  30.836  16.159  1.00  0.00     0.025 A 
ENDROOT
BRANCH   1   7
HETATM    7  C   LIG     1      16.992  32.692  14.556  1.00  0.00     0.293 C 
HETATM    8  O   LIG     1      18.067  32.684  15.216  1.00  0.00    -0.259 OA
BRANCH   7   9
HETATM    9  O   LIG     1      16.943  33.310  13.299  1.00  0.00    -0.318 OA
BRANCH   9  10
HETATM   10  C   LIG     1      17.911  34.253  12.848  1.00  0.00     0.178 C 
BRANCH  10  11
HETATM   11  C   LIG     1      18.991  33.557  12.016  1.00  0.00     0.022 C 
HETATM   12  C   LIG     1      20.383  33.822  12.582  1.00  0.00     0.007 C 
ENDBRANCH  10  11
ENDBRANCH   9  10
ENDBRANCH   7   9
ENDBRANCH   1   7
BRANCH   6  13
HETATM   13  N   LIG     1      12.288  30.217  16.690  1.00  0.00    -0.399 N 
HETATM   14  H   LIG     1      11.344  30.628  16.521  1.00  0.00     0.156 HD
HETATM   15  H   LIG     1      12.355  29.342  17.257  1.00  0.00     0.156 HD
ENDBRANCH   6  13
TORSDOF 5
ENDMDL
MODEL 12
REMARK VINA RESULT:      -5.9     10.137     11.823
REMARK  5 active torsions:
REMARK  status: ('A' for Active; 'I' for Inactive)
REMARK    1  A    between atoms: C_2  and  C_3 
REMARK    2  A    between atoms: C_2  and  O_10 
REMARK    3  A    between atoms: C_8  and  N_9 
REMARK    4  A    between atoms: O_10  and  C_11 
REMARK    5  A    between atoms: C_11  and  C_12 
ROOT
HETATM    1  C   LIG     1      14.461  30.613  15.168  1.00  0.00     0.039 A 
HETATM    2  C   LIG     1      15.522  31.493  14.896  1.00  0.00     0.020 A 
HETATM    3  C   LIG     1      15.735  32.618  15.698  1.00  0.00     0.030 A 
HETATM    4  C   LIG     1      13.616  30.882  16.261  1.00  0.00     0.020 A 
HETATM    5  C   LIG     1      13.830  32.007  17.062  1.00  0.00     0.030 A 
HETATM    6  C   LIG     1      14.890  32.880  16.785  1.00  0.00     0.025 A 
ENDROOT
BRANCH   1   7
HETATM    7  C   LIG     1      14.240  29.423  14.317  1.00  0.00     0.293 C 
HETATM    8  O   LIG     1      13.068  28.998  14.116  1.00  0.00    -0.259 OA
BRANCH   7   9
HETATM    9  O   LIG     1      15.334  28.767  13.738  1.00  0.00    -0.318 OA
BRANCH   9  10
HETATM   10  C   LIG     1      15.283  27.427  13.255  1.00  0.00     0.178 C 
BRANCH  10  11
HETATM   11  C   LIG     1      16.174  27.267  12.021  1.00  0.00     0.022 C 
HETATM   12  C   LIG     1      15.516  26.372  10.975  1.00  0.00     0.007 C 
ENDBRANCH  10  11
ENDBRANCH   9  10
ENDBRANCH   7   9
ENDBRANCH   1   7
BRANCH   6  13
HETATM   13  N   LIG     1      15.108  34.032  17.605  1.00  0.00    -0.399 N 
HETATM   14  H   LIG     1      16.067  34.424  17.731  1.00  0.00     0.156 HD
HETATM   15  H   LIG     1      14.312  34.499  18.093  1.00  0.00     0.156 HD
ENDBRANCH   6  13
TORSDOF 5
ENDMDL
MODEL 13
REMARK VINA RESULT:      -5.9      3.209      5.740
REMARK  5 active torsions:
REMARK  status: ('A' for Active; 'I' for Inactive)
REMARK    1  A    between atoms: C_2  and  C_3 
REMARK    2  A    between atoms: C_2  and  O_10 
REMARK    3  A    between atoms: C_8  and  N_9 
REMARK    4  A    between atoms: O_10  and  C_11 
REMARK    5  A    between atoms: C_11  and  C_12 
ROOT
HETATM    1  C   LIG     1      18.065  37.447  20.796  1.00  0.00     0.039 A 
HETATM    2  C   LIG     1      17.325  36.415  21.400  1.00  0.00     0.020 A 
HETATM    3  C   LIG     1      16.849  36.555  22.706  1.00  0.00     0.030 A 
HETATM    4  C   LIG     1      18.319  38.622  21.529  1.00  0.00     0.020 A 
HETATM    5  C   LIG     1      17.842  38.759  22.835  1.00  0.00     0.030 A 
HETATM    6  C   LIG     1      17.106  37.727  23.430  1.00  0.00     0.025 A 
ENDROOT
BRANCH   1   7
HETATM    7  C   LIG     1      18.567  37.296  19.413  1.00  0.00     0.293 C 
HETATM    8  O   LIG     1      18.041  36.450  18.637  1.00  0.00    -0.259 OA
BRANCH   7   9
HETATM    9  O   LIG     1      19.633  38.090  18.968  1.00  0.00    -0.318 OA
BRANCH   9  10
HETATM   10  C   LIG     1      19.460  39.363  18.350  1.00  0.00     0.178 C 
BRANCH  10  11
HETATM   11  C   LIG     1      18.786  39.209  16.984  1.00  0.00     0.022 C 
HETATM   12  C   LIG     1      18.534  40.566  16.335  1.00  0.00     0.007 C 
ENDBRANCH  10  11
ENDBRANCH   9  10
ENDBRANCH   7   9
ENDBRANCH   1   7
BRANCH   6  13
HETATM   13  N   LIG     1      16.618  37.868  24.768  1.00  0.00    -0.399 N 
HETATM   14  H   LIG     1      15.647  38.205  24.950  1.00  0.00     0.156 HD
HETATM   15  H   LIG     1      17.225  37.637  25.585  1.00  0.00     0.156 HD
ENDBRANCH   6  13
TORSDOF 5
ENDMDL
MODEL 14
REMARK VINA RESULT:      -5.8     10.272     11.869
REMARK  5 active torsions:
REMARK  status: ('A' for Active; 'I' for Inactive)
REMARK    1  A    between atoms: C_2  and  C_3 
REMARK    2  A    between atoms: C_2  and  O_10 
REMARK    3  A    between atoms: C_8  and  N_9 
REMARK    4  A    between atoms: O_10  and  C_11 
REMARK    5  A    between atoms: C_11  and  C_12 
ROOT
HETATM    1  C   LIG     1      14.451  30.565  15.031  1.00  0.00     0.039 A 
HETATM    2  C   LIG     1      13.546  30.831  16.073  1.00  0.00     0.020 A 
HETATM    3  C   LIG     1      13.722  31.946  16.897  1.00  0.00     0.030 A 
HETATM    4  C   LIG     1      15.537  31.439  14.831  1.00  0.00     0.020 A 
HETATM    5  C   LIG     1      15.710  32.553  15.657  1.00  0.00     0.030 A 
HETATM    6  C   LIG     1      14.804  32.812  16.693  1.00  0.00     0.025 A 
ENDROOT
BRANCH   1   7
HETATM    7  C   LIG     1      14.262  29.383  14.160  1.00  0.00     0.293 C 
HETATM    8  O   LIG     1      15.230  28.931  13.489  1.00  0.00    -0.259 OA
BRANCH   7   9
HETATM    9  O   LIG     1      13.004  28.772  14.080  1.00  0.00    -0.318 OA
BRANCH   9  10
HETATM   10  C   LIG     1      12.804  27.445  13.600  1.00  0.00     0.178 C 
BRANCH  10  11
HETATM   11  C   LIG     1      11.441  27.322  12.913  1.00  0.00     0.022 C 
HETATM   12  C   LIG     1      10.691  28.651  12.932  1.00  0.00     0.007 C 
ENDBRANCH  10  11
ENDBRANCH   9  10
ENDBRANCH   7   9
ENDBRANCH   1   7
BRANCH   6  13
HETATM   13  N   LIG     1      14.982  33.953  17.537  1.00  0.00    -0.399 N 
HETATM   14  H   LIG     1      15.831  34.046  18.138  1.00  0.00     0.156 HD
HETATM   15  H   LIG     1      14.267  34.713  17.567  1.00  0.00     0.156 HD
ENDBRANCH   6  13
TORSDOF 5
ENDMDL
MODEL 15
REMARK VINA RESULT:      -5.8      7.651      8.698
REMARK  5 active torsions:
REMARK  status: ('A' for Active; 'I' for Inactive)
REMARK    1  A    between atoms: C_2  and  C_3 
REMARK    2  A    between atoms: C_2  and  O_10 
REMARK    3  A    between atoms: C_8  and  N_9 
REMARK    4  A    between atoms: O_10  and  C_11 
REMARK    5  A    between atoms: C_11  and  C_12 
ROOT
HETATM    1  C   LIG     1      14.704  31.526  15.960  1.00  0.00     0.039 A 
HETATM    2  C   LIG     1      14.725  30.790  14.764  1.00  0.00     0.020 A 
HETATM    3  C   LIG     1      15.579  31.157  13.720  1.00  0.00     0.030 A 
HETATM    4  C   LIG     1      15.556  32.639  16.091  1.00  0.00     0.020 A 
HETATM    5  C   LIG     1      16.409  33.004  15.046  1.00  0.00     0.030 A 
HETATM    6  C   LIG     1      16.425  32.266  13.856  1.00  0.00     0.025 A 
ENDROOT
BRANCH   1   7
HETATM    7  C   LIG     1      13.799  31.134  17.063  1.00  0.00     0.293 C 
HETATM    8  O   LIG     1      12.930  30.237  16.880  1.00  0.00    -0.259 OA
BRANCH   7   9
HETATM    9  O   LIG     1      13.905  31.766  18.309  1.00  0.00    -0.318 OA
BRANCH   9  10
HETATM   10  C   LIG     1      14.646  31.229  19.403  1.00  0.00     0.178 C 
BRANCH  10  11
HETATM   11  C   LIG     1      15.896  32.072  19.668  1.00  0.00     0.022 C 
HETATM   12  C   LIG     1      15.532  33.434  20.251  1.00  0.00     0.007 C 
ENDBRANCH  10  11
ENDBRANCH   9  10
ENDBRANCH   7   9
ENDBRANCH   1   7
BRANCH   6  13
HETATM   13  N   LIG     1      17.298  32.642  12.787  1.00  0.00    -0.399 N 
HETATM   14  H   LIG     1      17.933  31.941  12.344  1.00  0.00     0.156 HD
HETATM   15  H   LIG     1      17.317  33.623  12.432  1.00  0.00     0.156 HD
ENDBRANCH   6  13
TORSDOF 5
ENDMDL
MODEL 16
REMARK VINA RESULT:      -5.5      3.501      4.695
REMARK  5 active torsions:
REMARK  status: ('A' for Active; 'I' for Inactive)
REMARK    1  A    between atoms: C_2  and  C_3 
REMARK    2  A    between atoms: C_2  and  O_10 
REMARK    3  A    between atoms: C_8  and  N_9 
REMARK    4  A    between atoms: O_10  and  C_11 
REMARK    5  A    between atoms: C_11  and  C_12 
ROOT
HETATM    1  C   LIG     1      17.451  36.052  20.541  1.00  0.00     0.039 A 
HETATM    2  C   LIG     1      16.477  35.713  19.586  1.00  0.00     0.020 A 
HETATM    3  C   LIG     1      15.361  34.955  19.952  1.00  0.00     0.030 A 
HETATM    4  C   LIG     1      17.285  35.617  21.869  1.00  0.00     0.020 A 
HETATM    5  C   LIG     1      16.168  34.860  22.231  1.00  0.00     0.030 A 
HETATM    6  C   LIG     1      15.201  34.525  21.275  1.00  0.00     0.025 A 
ENDROOT
BRANCH   1   7
HETATM    7  C   LIG     1      18.632  36.854  20.150  1.00  0.00     0.293 C 
HETATM    8  O   LIG     1      19.490  36.374  19.359  1.00  0.00    -0.259 OA
BRANCH   7   9
HETATM    9  O   LIG     1      18.798  38.146  20.667  1.00  0.00    -0.318 OA
BRANCH   9  10
HETATM   10  C   LIG     1      17.805  38.818  21.438  1.00  0.00     0.178 C 
BRANCH  10  11
HETATM   11  C   LIG     1      18.301  39.047  22.868  1.00  0.00     0.022 C 
HETATM   12  C   LIG     1      17.363  38.411  23.888  1.00  0.00     0.007 C 
ENDBRANCH  10  11
ENDBRANCH   9  10
ENDBRANCH   7   9
ENDBRANCH   1   7
BRANCH   6  13
HETATM   13  N   LIG     1      14.057  33.750  21.648  1.00  0.00    -0.399 N 
HETATM   14  H   LIG     1      13.127  34.202  21.784  1.00  0.00     0.156 HD
HETATM   15  H   LIG     1      14.135  32.718  21.789  1.00  0.00     0.156 HD
ENDBRANCH   6  13
TORSDOF 5
ENDMDL
MODEL 17
REMARK VINA RESULT:      -5.1      8.470     10.597
REMARK  5 active torsions:
REMARK  status: ('A' for Active; 'I' for Inactive)
REMARK    1  A    between atoms: C_2  and  C_3 
REMARK    2  A    between atoms: C_2  and  O_10 
REMARK    3  A    between atoms: C_8  and  N_9 
REMARK    4  A    between atoms: O_10  and  C_11 
REMARK    5  A    between atoms: C_11  and  C_12 
ROOT
HETATM    1  C   LIG     1      15.527  31.903  15.201  1.00  0.00     0.039 A 
HETATM    2  C   LIG     1      14.482  31.015  15.511  1.00  0.00     0.020 A 
HETATM    3  C   LIG     1      13.946  30.974  16.801  1.00  0.00     0.030 A 
HETATM    4  C   LIG     1      16.025  32.748  16.210  1.00  0.00     0.020 A 
HETATM    5  C   LIG     1      15.487  32.705  17.499  1.00  0.00     0.030 A 
HETATM    6  C   LIG     1      14.446  31.818  17.801  1.00  0.00     0.025 A 
ENDROOT
BRANCH   1   7
HETATM    7  C   LIG     1      16.092  31.944  13.834  1.00  0.00     0.293 C 
HETATM    8  O   LIG     1      15.426  31.496  12.860  1.00  0.00    -0.259 OA
BRANCH   7   9
HETATM    9  O   LIG     1      17.371  32.476  13.625  1.00  0.00    -0.318 OA
BRANCH   9  10
HETATM   10  C   LIG     1      17.612  33.697  12.929  1.00  0.00     0.178 C 
BRANCH  10  11
HETATM   11  C   LIG     1      19.087  33.809  12.536  1.00  0.00     0.022 C 
HETATM   12  C   LIG     1      19.399  32.956  11.311  1.00  0.00     0.007 C 
ENDBRANCH  10  11
ENDBRANCH   9  10
ENDBRANCH   7   9
ENDBRANCH   1   7
BRANCH   6  13
HETATM   13  N   LIG     1      13.896  31.775  19.121  1.00  0.00    -0.399 N 
HETATM   14  H   LIG     1      13.013  32.282  19.350  1.00  0.00     0.156 HD
HETATM   15  H   LIG     1      14.369  31.235  19.879  1.00  0.00     0.156 HD
ENDBRANCH   6  13
TORSDOF 5
ENDMDL
MODEL 18
REMARK VINA RESULT:      -5.0      9.032     10.849
REMARK  5 active torsions:
REMARK  status: ('A' for Active; 'I' for Inactive)
REMARK    1  A    between atoms: C_2  and  C_3 
REMARK    2  A    between atoms: C_2  and  O_10 
REMARK    3  A    between atoms: C_8  and  N_9 
REMARK    4  A    between atoms: O_10  and  C_11 
REMARK    5  A    between atoms: C_11  and  C_12 
ROOT
HETATM    1  C   LIG     1      16.474  32.878  14.504  1.00  0.00     0.039 A 
HETATM    2  C   LIG     1      16.346  32.264  13.247  1.00  0.00     0.020 A 
HETATM    3  C   LIG     1      15.568  31.112  13.097  1.00  0.00     0.030 A 
HETATM    4  C   LIG     1      15.808  32.316  15.609  1.00  0.00     0.020 A 
HETATM    5  C   LIG     1      15.031  31.165  15.456  1.00  0.00     0.030 A 
HETATM    6  C   LIG     1      14.907  30.557  14.201  1.00  0.00     0.025 A 
ENDROOT
BRANCH   1   7
HETATM    7  C   LIG     1      17.299  34.098  14.659  1.00  0.00     0.293 C 
HETATM    8  O   LIG     1      17.140  34.846  15.663  1.00  0.00    -0.259 OA
BRANCH   7   9
HETATM    9  O   LIG     1      18.252  34.422  13.685  1.00  0.00    -0.318 OA
BRANCH   9  10
HETATM   10  C   LIG     1      19.245  33.510  13.222  1.00  0.00     0.178 C 
BRANCH  10  11
HETATM   11  C   LIG     1      20.489  34.266  12.747  1.00  0.00     0.022 C 
HETATM   12  C   LIG     1      20.613  34.228  11.227  1.00  0.00     0.007 C 
ENDBRANCH  10  11
ENDBRANCH   9  10
ENDBRANCH   7   9
ENDBRANCH   1   7
BRANCH   6  13
HETATM   13  N   LIG     1      14.111  29.378  14.046  1.00  0.00    -0.399 N 
HETATM   14  H   LIG     1      14.063  28.662  14.804  1.00  0.00     0.156 HD
HETATM   15  H   LIG     1      13.566  29.213  13.171  1.00  0.00     0.156 HD
ENDBRANCH   6  13
TORSDOF 5
ENDMDL
MODEL 19
REMARK VINA RESULT:      -4.9     11.434     12.950
REMARK  5 active torsions:
REMARK  status: ('A' for Active; 'I' for Inactive)
REMARK    1  A    between atoms: C_2  and  C_3 
REMARK    2  A    between atoms: C_2  and  O_10 
REMARK    3  A    between atoms: C_8  and  N_9 
REMARK    4  A    between atoms: O_10  and  C_11 
REMARK    5  A    between atoms: C_11  and  C_12 
ROOT
HETATM    1  C   LIG     1      13.556  29.801  14.576  1.00  0.00     0.039 A 
HETATM    2  C   LIG     1      14.772  30.160  13.971  1.00  0.00     0.020 A 
HETATM    3  C   LIG     1      15.594  31.129  14.553  1.00  0.00     0.030 A 
HETATM    4  C   LIG     1      13.178  30.432  15.776  1.00  0.00     0.020 A 
HETATM    5  C   LIG     1      14.002  31.401  16.356  1.00  0.00     0.030 A 
HETATM    6  C   LIG     1      15.213  31.754  15.748  1.00  0.00     0.025 A 
ENDROOT
BRANCH   1   7
HETATM    7  C   LIG     1      12.688  28.774  13.957  1.00  0.00     0.293 C 
HETATM    8  O   LIG     1      11.546  29.090  13.522  1.00  0.00    -0.259 OA
BRANCH   7   9
HETATM    9  O   LIG     1      13.135  27.450  13.861  1.00  0.00    -0.318 OA
BRANCH   9  10
HETATM   10  C   LIG     1      13.062  26.680  12.664  1.00  0.00     0.178 C 
BRANCH  10  11
HETATM   11  C   LIG     1      11.666  26.074  12.500  1.00  0.00     0.022 C 
HETATM   12  C   LIG     1      11.606  25.141  11.295  1.00  0.00     0.007 C 
ENDBRANCH  10  11
ENDBRANCH   9  10
ENDBRANCH   7   9
ENDBRANCH   1   7
BRANCH   6  13
HETATM   13  N   LIG     1      16.055  32.746  16.342  1.00  0.00    -0.399 N 
HETATM   14  H   LIG     1      16.976  32.991  15.915  1.00  0.00     0.156 HD
HETATM   15  H   LIG     1      15.764  33.243  17.213  1.00  0.00     0.156 HD
ENDBRANCH   6  13
TORSDOF 5
ENDMDL
MODEL 20
REMARK VINA RESULT:      -4.6      9.852     11.466
REMARK  5 active torsions:
REMARK  status: ('A' for Active; 'I' for Inactive)
REMARK    1  A    between atoms: C_2  and  C_3 
REMARK    2  A    between atoms: C_2  and  O_10 
REMARK    3  A    between atoms: C_8  and  N_9 
REMARK    4  A    between atoms: O_10  and  C_11 
REMARK    5  A    between atoms: C_11  and  C_12 
ROOT
HETATM    1  C   LIG     1      14.924  31.017  14.582  1.00  0.00     0.039 A 
HETATM    2  C   LIG     1      15.549  31.285  13.351  1.00  0.00     0.020 A 
HETATM    3  C   LIG     1      16.530  32.277  13.256  1.00  0.00     0.030 A 
HETATM    4  C   LIG     1      15.302  31.762  15.715  1.00  0.00     0.020 A 
HETATM    5  C   LIG     1      16.283  32.752  15.617  1.00  0.00     0.030 A 
HETATM    6  C   LIG     1      16.901  33.015  14.388  1.00  0.00     0.025 A 
ENDROOT
BRANCH   1   7
HETATM    7  C   LIG     1      13.886  29.967  14.679  1.00  0.00     0.293 C 
HETATM    8  O   LIG     1      12.805  30.200  15.287  1.00  0.00    -0.259 OA
BRANCH   7   9
HETATM    9  O   LIG     1      14.110  28.711  14.099  1.00  0.00    -0.318 OA
BRANCH   9  10
HETATM   10  C   LIG     1      15.398  28.242  13.710  1.00  0.00     0.178 C 
BRANCH  10  11
HETATM   11  C   LIG     1      15.271  27.025  12.790  1.00  0.00     0.022 C 
HETATM   12  C   LIG     1      16.261  27.102  11.632  1.00  0.00     0.007 C 
ENDBRANCH  10  11
ENDBRANCH   9  10
ENDBRANCH   7   9
ENDBRANCH   1   7
BRANCH   6  13
HETATM   13  N   LIG     1      17.905  34.029  14.289  1.00  0.00    -0.399 N 
HETATM   14  H   LIG     1      18.321  34.455  15.146  1.00  0.00     0.156 HD
HETATM   15  H   LIG     1      18.239  34.360  13.357  1.00  0.00     0.156 HD
ENDBRANCH   6  13
TORSDOF 5
ENDMDL
