REMARK  6 active torsions:
REMARK  status: ('A' for Active; 'I' for Inactive)
REMARK    1  A    between atoms: O_1  and  C_2 
REMARK    2  A    between atoms: C_5  and  C_6 
REMARK    3  A    between atoms: C_6  and  O_7 
REMARK    4  A    between atoms: O_7  and  C_8 
REMARK    5  A    between atoms: C_8  and  C_9 
REMARK    6  A    between atoms: C_9  and  C_10 
ROOT
HETATM    1  C   LIG     1      -4.622  -0.072   0.409  1.00  0.00     0.065 A 
HETATM    2  C   LIG     1      -3.974  -0.663   1.498  1.00  0.00     0.037 A 
HETATM    3  C   LIG     1      -2.586  -0.833   1.484  1.00  0.00     0.020 A 
HETATM    4  C   LIG     1      -1.827  -0.411   0.376  1.00  0.00     0.039 A 
HETATM    5  C   LIG     1      -2.486   0.183  -0.715  1.00  0.00     0.020 A 
HETATM    6  C   LIG     1      -3.875   0.351  -0.698  1.00  0.00     0.037 A 
ENDROOT
BRANCH   4   7
HETATM    7  C   LIG     1      -0.358  -0.587   0.356  1.00  0.00     0.293 C 
HETATM    8  O   LIG     1       0.229  -1.119   1.338  1.00  0.00    -0.259 OA
BRANCH   7   9
HETATM    9  O   LIG     1       0.378  -0.166  -0.760  1.00  0.00    -0.318 OA
BRANCH   9  10
HETATM   10  C   LIG     1       1.799  -0.246  -0.840  1.00  0.00     0.179 C 
BRANCH  10  11
HETATM   11  C   LIG     1       2.445   0.857   0.008  1.00  0.00     0.026 C 
BRANCH  11  12
HETATM   12  C   LIG     1       3.968   0.933  -0.182  1.00  0.00    -0.002 C 
HETATM   13  C   LIG     1       4.699  -0.258   0.437  1.00  0.00     0.005 C 
ENDBRANCH  11  12
ENDBRANCH  10  11
ENDBRANCH   9  10
ENDBRANCH   7   9
ENDBRANCH   4   7
BRANCH   1  14
HETATM   14  O   LIG     1      -6.005   0.090   0.437  1.00  0.00    -0.361 OA
HETATM   15  H   LIG     1      -6.504   0.515  -0.336  1.00  0.00     0.217 HD
ENDBRANCH   1  14
TORSDOF 6
