REMARK  9 active torsions:
REMARK  status: ('A' for Active; 'I' for Inactive)
REMARK    1  A    between atoms: C_3  and  O_4 
REMARK    2  A    between atoms: O_4  and  C_5 
REMARK    3  A    between atoms: C_9  and  C_10 
REMARK    4  A    between atoms: C_10  and  O_12 
REMARK    5  A    between atoms: O_12  and  C_13 
REMARK    6  A    between atoms: C_13  and  C_14 
REMARK    7  A    between atoms: C_14  and  N_15 
REMARK    8  A    between atoms: N_15  and  C_16 
REMARK    9  A    between atoms: N_15  and  C_18 
ROOT
HETATM    1  C   LIG     1      -0.285   0.696   0.965  1.00  0.00     0.293 C 
HETATM    2  O   LIG     1       0.106   0.089   2.000  1.00  0.00    -0.259 OA
ENDROOT
BRANCH   1   3
HETATM    3  C   LIG     1      -1.724   0.725   0.621  1.00  0.00     0.039 A 
HETATM    4  C   LIG     1      -2.669   0.060   1.421  1.00  0.00     0.020 A 
HETATM    5  C   LIG     1      -4.028   0.093   1.092  1.00  0.00     0.038 A 
HETATM    6  C   LIG     1      -4.466   0.793  -0.049  1.00  0.00     0.068 A 
HETATM    7  C   LIG     1      -3.524   1.457  -0.842  1.00  0.00     0.038 A 
HETATM    8  C   LIG     1      -2.166   1.425  -0.514  1.00  0.00     0.020 A 
BRANCH   6   9
HETATM    9  O   LIG     1      -5.817   0.863  -0.427  1.00  0.00    -0.352 OA
BRANCH   9  10
HETATM   10  C   LIG     1      -6.894   0.166   0.199  1.00  0.00     0.171 C 
HETATM   11  C   LIG     1      -6.890  -1.305  -0.200  1.00  0.00     0.034 C 
ENDBRANCH   9  10
ENDBRANCH   6   9
ENDBRANCH   1   3
BRANCH   1  12
HETATM   12  O   LIG     1       0.639   1.356   0.145  1.00  0.00    -0.316 OA
BRANCH  12  13
HETATM   13  C   LIG     1       2.047   1.348   0.374  1.00  0.00     0.209 C 
BRANCH  13  14
HETATM   14  C   LIG     1       2.651  -0.006  -0.001  1.00  0.00     0.299 C 
BRANCH  14  15
HETATM   15  N   LIG     1       4.124   0.061   0.137  1.00  0.00     0.089 N 
BRANCH  15  16
HETATM   16  C   LIG     1       4.615  -0.506   1.413  1.00  0.00     0.268 C 
HETATM   17  C   LIG     1       4.606  -2.042   1.460  1.00  0.00     0.037 C 
ENDBRANCH  15  16
BRANCH  15  18
HETATM   18  C   LIG     1       4.852  -0.446  -1.044  1.00  0.00     0.268 C 
HETATM   19  C   LIG     1       4.860   0.598  -2.157  1.00  0.00     0.037 C 
ENDBRANCH  15  18
ENDBRANCH  14  15
ENDBRANCH  13  14
ENDBRANCH  12  13
ENDBRANCH   1  12
TORSDOF 9
