MODEL 1
REMARK VINA RESULT:      -8.0      0.000      0.000
REMARK  6 active torsions:
REMARK  status: ('A' for Active; 'I' for Inactive)
REMARK    1  A    between atoms: O_1  and  C_2 
REMARK    2  A    between atoms: C_5  and  C_6 
REMARK    3  A    between atoms: C_6  and  O_7 
REMARK    4  A    between atoms: O_7  and  C_8 
REMARK    5  A    between atoms: C_8  and  C_9 
REMARK    6  A    between atoms: C_9  and  C_10 
ROOT
HETATM    1  C   LIG     1      19.686  38.758  19.778  1.00  0.00     0.065 A 
HETATM    2  C   LIG     1      19.025  39.423  20.815  1.00  0.00     0.037 A 
HETATM    3  C   LIG     1      18.038  38.766  21.556  1.00  0.00     0.020 A 
HETATM    4  C   LIG     1      17.699  37.431  21.267  1.00  0.00     0.039 A 
HETATM    5  C   LIG     1      18.369  36.769  20.223  1.00  0.00     0.020 A 
HETATM    6  C   LIG     1      19.356  37.429  19.483  1.00  0.00     0.037 A 
ENDROOT
BRANCH   4   7
HETATM    7  C   LIG     1      16.656  36.730  22.048  1.00  0.00     0.293 C 
HETATM    8  O   LIG     1      16.020  35.768  21.535  1.00  0.00    -0.259 OA
BRANCH   7   9
HETATM    9  O   LIG     1      16.380  37.135  23.361  1.00  0.00    -0.318 OA
BRANCH   9  10
HETATM   10  C   LIG     1      17.217  36.823  24.472  1.00  0.00     0.179 C 
BRANCH  10  11
HETATM   11  C   LIG     1      17.259  35.307  24.700  1.00  0.00     0.026 C 
BRANCH  11  12
HETATM   12  C   LIG     1      17.895  34.929  26.047  1.00  0.00    -0.002 C 
HETATM   13  C   LIG     1      18.415  36.144  26.815  1.00  0.00     0.005 C 
ENDBRANCH  11  12
ENDBRANCH  10  11
ENDBRANCH   9  10
ENDBRANCH   7   9
ENDBRANCH   4   7
BRANCH   1  14
HETATM   14  O   LIG     1      20.667  39.425  19.048  1.00  0.00    -0.361 OA
HETATM   15  H   LIG     1      21.621  39.494  19.384  1.00  0.00     0.217 HD
ENDBRANCH   1  14
TORSDOF 6
ENDMDL
MODEL 2
REMARK VINA RESULT:      -7.6      1.276      2.175
REMARK  6 active torsions:
REMARK  status: ('A' for Active; 'I' for Inactive)
REMARK    1  A    between atoms: O_1  and  C_2 
REMARK    2  A    between atoms: C_5  and  C_6 
REMARK    3  A    between atoms: C_6  and  O_7 
REMARK    4  A    between atoms: O_7  and  C_8 
REMARK    5  A    between atoms: C_8  and  C_9 
REMARK    6  A    between atoms: C_9  and  C_10 
ROOT
HETATM    1  C   LIG     1      18.935  38.133  20.086  1.00  0.00     0.065 A 
HETATM    2  C   LIG     1      18.129  37.044  20.431  1.00  0.00     0.037 A 
HETATM    3  C   LIG     1      17.366  37.075  21.602  1.00  0.00     0.020 A 
HETATM    4  C   LIG     1      17.400  38.202  22.446  1.00  0.00     0.039 A 
HETATM    5  C   LIG     1      18.213  39.294  22.091  1.00  0.00     0.020 A 
HETATM    6  C   LIG     1      18.976  39.259  20.919  1.00  0.00     0.037 A 
ENDROOT
BRANCH   4   7
HETATM    7  C   LIG     1      16.594  38.242  23.686  1.00  0.00     0.293 C 
HETATM    8  O   LIG     1      15.397  37.845  23.675  1.00  0.00    -0.259 OA
BRANCH   7   9
HETATM    9  O   LIG     1      17.168  38.716  24.873  1.00  0.00    -0.318 OA
BRANCH   9  10
HETATM   10  C   LIG     1      17.373  37.904  26.026  1.00  0.00     0.179 C 
BRANCH  10  11
HETATM   11  C   LIG     1      18.572  36.970  25.815  1.00  0.00     0.026 C 
BRANCH  11  12
HETATM   12  C   LIG     1      18.263  35.515  26.202  1.00  0.00    -0.002 C 
HETATM   13  C   LIG     1      17.323  34.829  25.212  1.00  0.00     0.005 C 
ENDBRANCH  11  12
ENDBRANCH  10  11
ENDBRANCH   9  10
ENDBRANCH   7   9
ENDBRANCH   4   7
BRANCH   1  14
HETATM   14  O   LIG     1      19.690  38.087  18.916  1.00  0.00    -0.361 OA
HETATM   15  H   LIG     1      20.057  37.213  18.557  1.00  0.00     0.217 HD
ENDBRANCH   1  14
TORSDOF 6
ENDMDL
MODEL 3
REMARK VINA RESULT:      -7.4      2.392      3.572
REMARK  6 active torsions:
REMARK  status: ('A' for Active; 'I' for Inactive)
REMARK    1  A    between atoms: O_1  and  C_2 
REMARK    2  A    between atoms: C_5  and  C_6 
REMARK    3  A    between atoms: C_6  and  O_7 
REMARK    4  A    between atoms: O_7  and  C_8 
REMARK    5  A    between atoms: C_8  and  C_9 
REMARK    6  A    between atoms: C_9  and  C_10 
ROOT
HETATM    1  C   LIG     1      15.951  35.375  20.507  1.00  0.00     0.065 A 
HETATM    2  C   LIG     1      17.246  35.902  20.510  1.00  0.00     0.037 A 
HETATM    3  C   LIG     1      17.593  36.914  21.411  1.00  0.00     0.020 A 
HETATM    4  C   LIG     1      16.644  37.411  22.324  1.00  0.00     0.039 A 
HETATM    5  C   LIG     1      15.344  36.876  22.315  1.00  0.00     0.020 A 
HETATM    6  C   LIG     1      15.000  35.864  21.412  1.00  0.00     0.037 A 
ENDROOT
BRANCH   4   7
HETATM    7  C   LIG     1      17.005  38.481  23.280  1.00  0.00     0.293 C 
HETATM    8  O   LIG     1      16.535  39.643  23.138  1.00  0.00    -0.259 OA
BRANCH   7   9
HETATM    9  O   LIG     1      17.867  38.197  24.349  1.00  0.00    -0.318 OA
BRANCH   9  10
HETATM   10  C   LIG     1      17.426  37.650  25.590  1.00  0.00     0.179 C 
BRANCH  10  11
HETATM   11  C   LIG     1      18.521  36.768  26.204  1.00  0.00     0.026 C 
BRANCH  11  12
HETATM   12  C   LIG     1      18.123  35.285  26.257  1.00  0.00    -0.002 C 
HETATM   13  C   LIG     1      17.303  34.850  25.042  1.00  0.00     0.005 C 
ENDBRANCH  11  12
ENDBRANCH  10  11
ENDBRANCH   9  10
ENDBRANCH   7   9
ENDBRANCH   4   7
BRANCH   1  14
HETATM   14  O   LIG     1      15.620  34.368  19.603  1.00  0.00    -0.361 OA
HETATM   15  H   LIG     1      15.032  34.551  18.799  1.00  0.00     0.217 HD
ENDBRANCH   1  14
TORSDOF 6
ENDMDL
MODEL 4
REMARK VINA RESULT:      -7.3      2.327      3.947
REMARK  6 active torsions:
REMARK  status: ('A' for Active; 'I' for Inactive)
REMARK    1  A    between atoms: O_1  and  C_2 
REMARK    2  A    between atoms: C_5  and  C_6 
REMARK    3  A    between atoms: C_6  and  O_7 
REMARK    4  A    between atoms: O_7  and  C_8 
REMARK    5  A    between atoms: C_8  and  C_9 
REMARK    6  A    between atoms: C_9  and  C_10 
ROOT
HETATM    1  C   LIG     1      19.654  38.759  19.784  1.00  0.00     0.065 A 
HETATM    2  C   LIG     1      19.319  37.439  19.464  1.00  0.00     0.037 A 
HETATM    3  C   LIG     1      18.356  36.755  20.212  1.00  0.00     0.020 A 
HETATM    4  C   LIG     1      17.712  37.387  21.293  1.00  0.00     0.039 A 
HETATM    5  C   LIG     1      18.054  38.714  21.609  1.00  0.00     0.020 A 
HETATM    6  C   LIG     1      19.018  39.395  20.858  1.00  0.00     0.037 A 
ENDROOT
BRANCH   4   7
HETATM    7  C   LIG     1      16.691  36.669  22.088  1.00  0.00     0.293 C 
HETATM    8  O   LIG     1      16.848  36.516  23.330  1.00  0.00    -0.259 OA
BRANCH   7   9
HETATM    9  O   LIG     1      15.546  36.164  21.456  1.00  0.00    -0.318 OA
BRANCH   9  10
HETATM   10  C   LIG     1      15.202  34.781  21.441  1.00  0.00     0.179 C 
BRANCH  10  11
HETATM   11  C   LIG     1      15.716  34.116  20.158  1.00  0.00     0.026 C 
BRANCH  11  12
HETATM   12  C   LIG     1      15.264  32.653  20.029  1.00  0.00    -0.002 C 
HETATM   13  C   LIG     1      14.976  32.251  18.583  1.00  0.00     0.005 C 
ENDBRANCH  11  12
ENDBRANCH  10  11
ENDBRANCH   9  10
ENDBRANCH   7   9
ENDBRANCH   4   7
BRANCH   1  14
HETATM   14  O   LIG     1      20.616  39.427  19.030  1.00  0.00    -0.361 OA
HETATM   15  H   LIG     1      21.033  40.292  19.352  1.00  0.00     0.217 HD
ENDBRANCH   1  14
TORSDOF 6
ENDMDL
MODEL 5
REMARK VINA RESULT:      -7.2      1.820      5.553
REMARK  6 active torsions:
REMARK  status: ('A' for Active; 'I' for Inactive)
REMARK    1  A    between atoms: O_1  and  C_2 
REMARK    2  A    between atoms: C_5  and  C_6 
REMARK    3  A    between atoms: C_6  and  O_7 
REMARK    4  A    between atoms: O_7  and  C_8 
REMARK    5  A    between atoms: C_8  and  C_9 
REMARK    6  A    between atoms: C_9  and  C_10 
ROOT
HETATM    1  C   LIG     1      17.802  35.604  25.587  1.00  0.00     0.065 A 
HETATM    2  C   LIG     1      17.284  35.307  24.323  1.00  0.00     0.037 A 
HETATM    3  C   LIG     1      16.950  36.337  23.439  1.00  0.00     0.020 A 
HETATM    4  C   LIG     1      17.133  37.683  23.810  1.00  0.00     0.039 A 
HETATM    5  C   LIG     1      17.656  37.974  25.083  1.00  0.00     0.020 A 
HETATM    6  C   LIG     1      17.988  36.940  25.966  1.00  0.00     0.037 A 
ENDROOT
BRANCH   4   7
HETATM    7  C   LIG     1      16.783  38.778  22.878  1.00  0.00     0.293 C 
HETATM    8  O   LIG     1      15.576  39.001  22.590  1.00  0.00    -0.259 OA
BRANCH   7   9
HETATM    9  O   LIG     1      17.798  39.568  22.322  1.00  0.00    -0.318 OA
BRANCH   9  10
HETATM   10  C   LIG     1      18.991  39.032  21.755  1.00  0.00     0.179 C 
BRANCH  10  11
HETATM   11  C   LIG     1      18.989  39.214  20.232  1.00  0.00     0.026 C 
BRANCH  11  12
HETATM   12  C   LIG     1      19.267  37.903  19.480  1.00  0.00    -0.002 C 
HETATM   13  C   LIG     1      18.429  36.736  19.999  1.00  0.00     0.005 C 
ENDBRANCH  11  12
ENDBRANCH  10  11
ENDBRANCH   9  10
ENDBRANCH   7   9
ENDBRANCH   4   7
BRANCH   1  14
HETATM   14  O   LIG     1      18.129  34.567  26.458  1.00  0.00    -0.361 OA
HETATM   15  H   LIG     1      18.990  34.576  26.993  1.00  0.00     0.217 HD
ENDBRANCH   1  14
TORSDOF 6
ENDMDL
MODEL 6
REMARK VINA RESULT:      -6.9      2.413      5.106
REMARK  6 active torsions:
REMARK  status: ('A' for Active; 'I' for Inactive)
REMARK    1  A    between atoms: O_1  and  C_2 
REMARK    2  A    between atoms: C_5  and  C_6 
REMARK    3  A    between atoms: C_6  and  O_7 
REMARK    4  A    between atoms: O_7  and  C_8 
REMARK    5  A    between atoms: C_8  and  C_9 
REMARK    6  A    between atoms: C_9  and  C_10 
ROOT
HETATM    1  C   LIG     1      15.514  34.650  21.116  1.00  0.00     0.065 A 
HETATM    2  C   LIG     1      16.756  34.656  21.757  1.00  0.00     0.037 A 
HETATM    3  C   LIG     1      17.157  35.766  22.507  1.00  0.00     0.020 A 
HETATM    4  C   LIG     1      16.314  36.888  22.625  1.00  0.00     0.039 A 
HETATM    5  C   LIG     1      15.066  36.874  21.978  1.00  0.00     0.020 A 
HETATM    6  C   LIG     1      14.669  35.762  21.228  1.00  0.00     0.037 A 
ENDROOT
BRANCH   4   7
HETATM    7  C   LIG     1      16.732  38.065  23.419  1.00  0.00     0.293 C 
HETATM    8  O   LIG     1      16.534  38.091  24.665  1.00  0.00    -0.259 OA
BRANCH   7   9
HETATM    9  O   LIG     1      17.352  39.149  22.782  1.00  0.00    -0.318 OA
BRANCH   9  10
HETATM   10  C   LIG     1      18.643  39.074  22.183  1.00  0.00     0.179 C 
BRANCH  10  11
HETATM   11  C   LIG     1      18.543  39.288  20.667  1.00  0.00     0.026 C 
BRANCH  11  12
HETATM   12  C   LIG     1      19.526  38.409  19.879  1.00  0.00    -0.002 C 
HETATM   13  C   LIG     1      18.972  37.012  19.598  1.00  0.00     0.005 C 
ENDBRANCH  11  12
ENDBRANCH  10  11
ENDBRANCH   9  10
ENDBRANCH   7   9
ENDBRANCH   4   7
BRANCH   1  14
HETATM   14  O   LIG     1      15.129  33.538  20.371  1.00  0.00    -0.361 OA
HETATM   15  H   LIG     1      14.740  32.713  20.814  1.00  0.00     0.217 HD
ENDBRANCH   1  14
TORSDOF 6
ENDMDL
MODEL 7
REMARK VINA RESULT:      -6.7      1.922      5.014
REMARK  6 active torsions:
REMARK  status: ('A' for Active; 'I' for Inactive)
REMARK    1  A    between atoms: O_1  and  C_2 
REMARK    2  A    between atoms: C_5  and  C_6 
REMARK    3  A    between atoms: C_6  and  O_7 
REMARK    4  A    between atoms: O_7  and  C_8 
REMARK    5  A    between atoms: C_8  and  C_9 
REMARK    6  A    between atoms: C_9  and  C_10 
ROOT
HETATM    1  C   LIG     1      17.296  37.627  24.802  1.00  0.00     0.065 A 
HETATM    2  C   LIG     1      17.087  38.461  23.699  1.00  0.00     0.037 A 
HETATM    3  C   LIG     1      16.877  37.912  22.431  1.00  0.00     0.020 A 
HETATM    4  C   LIG     1      16.871  36.516  22.250  1.00  0.00     0.039 A 
HETATM    5  C   LIG     1      17.081  35.684  23.364  1.00  0.00     0.020 A 
HETATM    6  C   LIG     1      17.292  36.236  24.632  1.00  0.00     0.037 A 
ENDROOT
BRANCH   4   7
HETATM    7  C   LIG     1      16.647  35.929  20.910  1.00  0.00     0.293 C 
HETATM    8  O   LIG     1      15.503  35.505  20.588  1.00  0.00    -0.259 OA
BRANCH   7   9
HETATM    9  O   LIG     1      17.709  35.851  19.998  1.00  0.00    -0.318 OA
BRANCH   9  10
HETATM   10  C   LIG     1      18.224  36.979  19.294  1.00  0.00     0.179 C 
BRANCH  10  11
HETATM   11  C   LIG     1      19.734  37.110  19.526  1.00  0.00     0.026 C 
BRANCH  11  12
HETATM   12  C   LIG     1      20.181  38.570  19.695  1.00  0.00    -0.002 C 
HETATM   13  C   LIG     1      19.061  39.473  20.212  1.00  0.00     0.005 C 
ENDBRANCH  11  12
ENDBRANCH  10  11
ENDBRANCH   9  10
ENDBRANCH   7   9
ENDBRANCH   4   7
BRANCH   1  14
HETATM   14  O   LIG     1      17.505  38.188  26.059  1.00  0.00    -0.361 OA
HETATM   15  H   LIG     1      17.089  37.789  26.893  1.00  0.00     0.217 HD
ENDBRANCH   1  14
TORSDOF 6
ENDMDL
MODEL 8
REMARK VINA RESULT:      -6.4      6.714      8.345
REMARK  6 active torsions:
REMARK  status: ('A' for Active; 'I' for Inactive)
REMARK    1  A    between atoms: O_1  and  C_2 
REMARK    2  A    between atoms: C_5  and  C_6 
REMARK    3  A    between atoms: C_6  and  O_7 
REMARK    4  A    between atoms: O_7  and  C_8 
REMARK    5  A    between atoms: C_8  and  C_9 
REMARK    6  A    between atoms: C_9  and  C_10 
ROOT
HETATM    1  C   LIG     1      13.800  30.160  14.838  1.00  0.00     0.065 A 
HETATM    2  C   LIG     1      15.000  30.777  14.469  1.00  0.00     0.037 A 
HETATM    3  C   LIG     1      15.488  31.862  15.204  1.00  0.00     0.020 A 
HETATM    4  C   LIG     1      14.780  32.344  16.321  1.00  0.00     0.039 A 
HETATM    5  C   LIG     1      13.575  31.717  16.686  1.00  0.00     0.020 A 
HETATM    6  C   LIG     1      13.089  30.632  15.949  1.00  0.00     0.037 A 
ENDROOT
BRANCH   4   7
HETATM    7  C   LIG     1      15.293  33.491  17.103  1.00  0.00     0.293 C 
HETATM    8  O   LIG     1      15.638  34.553  16.516  1.00  0.00    -0.259 OA
BRANCH   7   9
HETATM    9  O   LIG     1      15.388  33.395  18.498  1.00  0.00    -0.318 OA
BRANCH   9  10
HETATM   10  C   LIG     1      15.610  34.516  19.349  1.00  0.00     0.179 C 
BRANCH  10  11
HETATM   11  C   LIG     1      15.692  34.068  20.814  1.00  0.00     0.026 C 
BRANCH  11  12
HETATM   12  C   LIG     1      16.463  35.063  21.694  1.00  0.00    -0.002 C 
HETATM   13  C   LIG     1      17.288  36.056  20.877  1.00  0.00     0.005 C 
ENDBRANCH  11  12
ENDBRANCH  10  11
ENDBRANCH   9  10
ENDBRANCH   7   9
ENDBRANCH   4   7
BRANCH   1  14
HETATM   14  O   LIG     1      13.326  29.080  14.097  1.00  0.00    -0.361 OA
HETATM   15  H   LIG     1      12.898  29.210  13.188  1.00  0.00     0.217 HD
ENDBRANCH   1  14
TORSDOF 6
ENDMDL
MODEL 9
REMARK VINA RESULT:      -6.4      8.686     10.969
REMARK  6 active torsions:
REMARK  status: ('A' for Active; 'I' for Inactive)
REMARK    1  A    between atoms: O_1  and  C_2 
REMARK    2  A    between atoms: C_5  and  C_6 
REMARK    3  A    between atoms: C_6  and  O_7 
REMARK    4  A    between atoms: O_7  and  C_8 
REMARK    5  A    between atoms: C_8  and  C_9 
REMARK    6  A    between atoms: C_9  and  C_10 
ROOT
HETATM    1  C   LIG     1      13.362  30.828  16.258  1.00  0.00     0.065 A 
HETATM    2  C   LIG     1      13.945  30.299  15.103  1.00  0.00     0.037 A 
HETATM    3  C   LIG     1      15.095  30.883  14.564  1.00  0.00     0.020 A 
HETATM    4  C   LIG     1      15.678  32.008  15.177  1.00  0.00     0.039 A 
HETATM    5  C   LIG     1      15.086  32.535  16.339  1.00  0.00     0.020 A 
HETATM    6  C   LIG     1      13.935  31.948  16.875  1.00  0.00     0.037 A 
ENDROOT
BRANCH   4   7
HETATM    7  C   LIG     1      16.896  32.630  14.612  1.00  0.00     0.293 C 
HETATM    8  O   LIG     1      17.983  32.590  15.252  1.00  0.00    -0.259 OA
BRANCH   7   9
HETATM    9  O   LIG     1      16.840  33.259  13.360  1.00  0.00    -0.318 OA
BRANCH   9  10
HETATM   10  C   LIG     1      17.788  34.230  12.925  1.00  0.00     0.179 C 
BRANCH  10  11
HETATM   11  C   LIG     1      18.900  33.562  12.107  1.00  0.00     0.026 C 
BRANCH  11  12
HETATM   12  C   LIG     1      20.292  33.766  12.725  1.00  0.00    -0.002 C 
HETATM   13  C   LIG     1      21.241  34.529  11.801  1.00  0.00     0.005 C 
ENDBRANCH  11  12
ENDBRANCH  10  11
ENDBRANCH   9  10
ENDBRANCH   7   9
ENDBRANCH   4   7
BRANCH   1  14
HETATM   14  O   LIG     1      12.216  30.236  16.783  1.00  0.00    -0.361 OA
HETATM   15  H   LIG     1      11.377  30.119  16.226  1.00  0.00     0.217 HD
ENDBRANCH   1  14
TORSDOF 6
ENDMDL
MODEL 10
REMARK VINA RESULT:      -6.3      8.573     11.143
REMARK  6 active torsions:
REMARK  status: ('A' for Active; 'I' for Inactive)
REMARK    1  A    between atoms: O_1  and  C_2 
REMARK    2  A    between atoms: C_5  and  C_6 
REMARK    3  A    between atoms: C_6  and  O_7 
REMARK    4  A    between atoms: O_7  and  C_8 
REMARK    5  A    between atoms: C_8  and  C_9 
REMARK    6  A    between atoms: C_9  and  C_10 
ROOT
HETATM    1  C   LIG     1      13.474  29.505  14.440  1.00  0.00     0.065 A 
HETATM    2  C   LIG     1      14.677  29.665  13.746  1.00  0.00     0.037 A 
HETATM    3  C   LIG     1      15.573  30.674  14.113  1.00  0.00     0.020 A 
HETATM    4  C   LIG     1      15.274  31.538  15.184  1.00  0.00     0.039 A 
HETATM    5  C   LIG     1      14.062  31.370  15.877  1.00  0.00     0.020 A 
HETATM    6  C   LIG     1      13.168  30.360  15.506  1.00  0.00     0.037 A 
ENDROOT
BRANCH   4   7
HETATM    7  C   LIG     1      16.218  32.607  15.578  1.00  0.00     0.293 C 
HETATM    8  O   LIG     1      15.793  33.647  16.152  1.00  0.00    -0.259 OA
BRANCH   7   9
HETATM    9  O   LIG     1      17.587  32.457  15.316  1.00  0.00    -0.318 OA
BRANCH   9  10
HETATM   10  C   LIG     1      18.340  33.371  14.522  1.00  0.00     0.179 C 
BRANCH  10  11
HETATM   11  C   LIG     1      17.728  33.489  13.120  1.00  0.00     0.026 C 
BRANCH  11  12
HETATM   12  C   LIG     1      18.733  34.005  12.078  1.00  0.00    -0.002 C 
HETATM   13  C   LIG     1      20.169  34.020  12.602  1.00  0.00     0.005 C 
ENDBRANCH  11  12
ENDBRANCH  10  11
ENDBRANCH   9  10
ENDBRANCH   7   9
ENDBRANCH   4   7
BRANCH   1  14
HETATM   14  O   LIG     1      12.592  28.496  14.062  1.00  0.00    -0.361 OA
HETATM   15  H   LIG     1      12.770  27.524  14.288  1.00  0.00     0.217 HD
ENDBRANCH   1  14
TORSDOF 6
ENDMDL
MODEL 11
REMARK VINA RESULT:      -6.2      7.740      9.500
REMARK  6 active torsions:
REMARK  status: ('A' for Active; 'I' for Inactive)
REMARK    1  A    between atoms: O_1  and  C_2 
REMARK    2  A    between atoms: C_5  and  C_6 
REMARK    3  A    between atoms: C_6  and  O_7 
REMARK    4  A    between atoms: O_7  and  C_8 
REMARK    5  A    between atoms: C_8  and  C_9 
REMARK    6  A    between atoms: C_9  and  C_10 
ROOT
HETATM    1  C   LIG     1      13.466  29.413  14.408  1.00  0.00     0.065 A 
HETATM    2  C   LIG     1      14.741  29.648  13.882  1.00  0.00     0.037 A 
HETATM    3  C   LIG     1      15.510  30.718  14.351  1.00  0.00     0.020 A 
HETATM    4  C   LIG     1      15.011  31.567  15.357  1.00  0.00     0.039 A 
HETATM    5  C   LIG     1      13.729  31.324  15.881  1.00  0.00     0.020 A 
HETATM    6  C   LIG     1      12.962  30.253  15.408  1.00  0.00     0.037 A 
ENDROOT
BRANCH   4   7
HETATM    7  C   LIG     1      15.821  32.700  15.858  1.00  0.00     0.293 C 
HETATM    8  O   LIG     1      17.079  32.665  15.773  1.00  0.00    -0.259 OA
BRANCH   7   9
HETATM    9  O   LIG     1      15.184  33.814  16.423  1.00  0.00    -0.318 OA
BRANCH   9  10
HETATM   10  C   LIG     1      15.248  34.136  17.810  1.00  0.00     0.179 C 
BRANCH  10  11
HETATM   11  C   LIG     1      15.223  32.857  18.657  1.00  0.00     0.026 C 
BRANCH  11  12
HETATM   12  C   LIG     1      15.479  33.130  20.148  1.00  0.00    -0.002 C 
HETATM   13  C   LIG     1      15.804  34.597  20.430  1.00  0.00     0.005 C 
ENDBRANCH  11  12
ENDBRANCH  10  11
ENDBRANCH   9  10
ENDBRANCH   7   9
ENDBRANCH   4   7
BRANCH   1  14
HETATM   14  O   LIG     1      12.712  28.344  13.930  1.00  0.00    -0.361 OA
HETATM   15  H   LIG     1      12.607  27.490  14.464  1.00  0.00     0.217 HD
ENDBRANCH   1  14
TORSDOF 6
ENDMDL
MODEL 12
REMARK VINA RESULT:      -6.0      6.365      7.803
REMARK  6 active torsions:
REMARK  status: ('A' for Active; 'I' for Inactive)
REMARK    1  A    between atoms: O_1  and  C_2 
REMARK    2  A    between atoms: C_5  and  C_6 
REMARK    3  A    between atoms: C_6  and  O_7 
REMARK    4  A    between atoms: O_7  and  C_8 
REMARK    5  A    between atoms: C_8  and  C_9 
REMARK    6  A    between atoms: C_9  and  C_10 
ROOT
HETATM    1  C   LIG     1      14.990  30.979  14.438  1.00  0.00     0.065 A 
HETATM    2  C   LIG     1      13.993  30.484  15.285  1.00  0.00     0.037 A 
HETATM    3  C   LIG     1      13.937  30.892  16.621  1.00  0.00     0.020 A 
HETATM    4  C   LIG     1      14.882  31.805  17.128  1.00  0.00     0.039 A 
HETATM    5  C   LIG     1      15.880  32.299  16.270  1.00  0.00     0.020 A 
HETATM    6  C   LIG     1      15.934  31.888  14.934  1.00  0.00     0.037 A 
ENDROOT
BRANCH   4   7
HETATM    7  C   LIG     1      14.827  32.242  18.541  1.00  0.00     0.293 C 
HETATM    8  O   LIG     1      14.252  31.523  19.404  1.00  0.00    -0.259 OA
BRANCH   7   9
HETATM    9  O   LIG     1      15.421  33.455  18.917  1.00  0.00    -0.318 OA
BRANCH   9  10
HETATM   10  C   LIG     1      15.723  33.796  20.268  1.00  0.00     0.179 C 
BRANCH  10  11
HETATM   11  C   LIG     1      16.004  35.299  20.390  1.00  0.00     0.026 C 
BRANCH  11  12
HETATM   12  C   LIG     1      16.886  35.638  21.602  1.00  0.00    -0.002 C 
HETATM   13  C   LIG     1      17.303  37.108  21.633  1.00  0.00     0.005 C 
ENDBRANCH  11  12
ENDBRANCH  10  11
ENDBRANCH   9  10
ENDBRANCH   7   9
ENDBRANCH   4   7
BRANCH   1  14
HETATM   14  O   LIG     1      15.033  30.562  13.110  1.00  0.00    -0.361 OA
HETATM   15  H   LIG     1      15.574  29.754  12.826  1.00  0.00     0.217 HD
ENDBRANCH   1  14
TORSDOF 6
ENDMDL
MODEL 13
REMARK VINA RESULT:      -5.5      8.939     10.431
REMARK  6 active torsions:
REMARK  status: ('A' for Active; 'I' for Inactive)
REMARK    1  A    between atoms: O_1  and  C_2 
REMARK    2  A    between atoms: C_5  and  C_6 
REMARK    3  A    between atoms: C_6  and  O_7 
REMARK    4  A    between atoms: O_7  and  C_8 
REMARK    5  A    between atoms: C_8  and  C_9 
REMARK    6  A    between atoms: C_9  and  C_10 
ROOT
HETATM    1  C   LIG     1      20.129  34.516  11.085  1.00  0.00     0.065 A 
HETATM    2  C   LIG     1      20.680  33.936  12.232  1.00  0.00     0.037 A 
HETATM    3  C   LIG     1      19.864  33.625  13.325  1.00  0.00     0.020 A 
HETATM    4  C   LIG     1      18.483  33.892  13.282  1.00  0.00     0.039 A 
HETATM    5  C   LIG     1      17.936  34.475  12.125  1.00  0.00     0.020 A 
HETATM    6  C   LIG     1      18.755  34.785  11.033  1.00  0.00     0.037 A 
ENDROOT
BRANCH   4   7
HETATM    7  C   LIG     1      17.615  33.564  14.435  1.00  0.00     0.293 C 
HETATM    8  O   LIG     1      17.237  34.475  15.221  1.00  0.00    -0.259 OA
BRANCH   7   9
HETATM    9  O   LIG     1      17.210  32.239  14.646  1.00  0.00    -0.318 OA
BRANCH   9  10
HETATM   10  C   LIG     1      15.849  31.851  14.818  1.00  0.00     0.179 C 
BRANCH  10  11
HETATM   11  C   LIG     1      15.404  30.938  13.668  1.00  0.00     0.026 C 
BRANCH  11  12
HETATM   12  C   LIG     1      14.648  29.694  14.160  1.00  0.00    -0.002 C 
HETATM   13  C   LIG     1      15.336  28.390  13.759  1.00  0.00     0.005 C 
ENDBRANCH  11  12
ENDBRANCH  10  11
ENDBRANCH   9  10
ENDBRANCH   7   9
ENDBRANCH   4   7
BRANCH   1  14
HETATM   14  O   LIG     1      20.954  34.821  10.005  1.00  0.00    -0.361 OA
HETATM   15  H   LIG     1      21.189  35.779   9.772  1.00  0.00     0.217 HD
ENDBRANCH   1  14
TORSDOF 6
ENDMDL
MODEL 14
REMARK VINA RESULT:      -5.4      9.245     11.081
REMARK  6 active torsions:
REMARK  status: ('A' for Active; 'I' for Inactive)
REMARK    1  A    between atoms: O_1  and  C_2 
REMARK    2  A    between atoms: C_5  and  C_6 
REMARK    3  A    between atoms: C_6  and  O_7 
REMARK    4  A    between atoms: O_7  and  C_8 
REMARK    5  A    between atoms: C_8  and  C_9 
REMARK    6  A    between atoms: C_9  and  C_10 
ROOT
HETATM    1  C   LIG     1      13.383  27.997  13.976  1.00  0.00     0.065 A 
HETATM    2  C   LIG     1      14.706  28.003  13.525  1.00  0.00     0.037 A 
HETATM    3  C   LIG     1      15.473  29.170  13.607  1.00  0.00     0.020 A 
HETATM    4  C   LIG     1      14.922  30.349  14.144  1.00  0.00     0.039 A 
HETATM    5  C   LIG     1      13.591  30.335  14.596  1.00  0.00     0.020 A 
HETATM    6  C   LIG     1      12.826  29.166  14.512  1.00  0.00     0.037 A 
ENDROOT
BRANCH   4   7
HETATM    7  C   LIG     1      15.729  31.586  14.235  1.00  0.00     0.293 C 
HETATM    8  O   LIG     1      16.756  31.726  13.515  1.00  0.00    -0.259 OA
BRANCH   7   9
HETATM    9  O   LIG     1      15.345  32.604  15.118  1.00  0.00    -0.318 OA
BRANCH   9  10
HETATM   10  C   LIG     1      15.926  32.787  16.407  1.00  0.00     0.179 C 
BRANCH  10  11
HETATM   11  C   LIG     1      14.833  33.011  17.460  1.00  0.00     0.026 C 
BRANCH  11  12
HETATM   12  C   LIG     1      14.396  31.707  18.145  1.00  0.00    -0.002 C 
HETATM   13  C   LIG     1      14.820  31.642  19.612  1.00  0.00     0.005 C 
ENDBRANCH  11  12
ENDBRANCH  10  11
ENDBRANCH   9  10
ENDBRANCH   7   9
ENDBRANCH   4   7
BRANCH   1  14
HETATM   14  O   LIG     1      12.631  26.828  13.887  1.00  0.00    -0.361 OA
HETATM   15  H   LIG     1      13.067  25.931  13.706  1.00  0.00     0.217 HD
ENDBRANCH   1  14
TORSDOF 6
ENDMDL
MODEL 15
REMARK VINA RESULT:      -5.3      3.115      5.060
REMARK  6 active torsions:
REMARK  status: ('A' for Active; 'I' for Inactive)
REMARK    1  A    between atoms: O_1  and  C_2 
REMARK    2  A    between atoms: C_5  and  C_6 
REMARK    3  A    between atoms: C_6  and  O_7 
REMARK    4  A    between atoms: O_7  and  C_8 
REMARK    5  A    between atoms: C_8  and  C_9 
REMARK    6  A    between atoms: C_9  and  C_10 
ROOT
HETATM    1  C   LIG     1      17.261  38.050  24.604  1.00  0.00     0.065 A 
HETATM    2  C   LIG     1      17.194  38.732  23.385  1.00  0.00     0.037 A 
HETATM    3  C   LIG     1      17.017  38.025  22.191  1.00  0.00     0.020 A 
HETATM    4  C   LIG     1      16.904  36.622  22.204  1.00  0.00     0.039 A 
HETATM    5  C   LIG     1      16.971  35.943  23.434  1.00  0.00     0.020 A 
HETATM    6  C   LIG     1      17.149  36.654  24.626  1.00  0.00     0.037 A 
ENDROOT
BRANCH   4   7
HETATM    7  C   LIG     1      16.715  35.868  20.944  1.00  0.00     0.293 C 
HETATM    8  O   LIG     1      17.503  36.048  19.975  1.00  0.00    -0.259 OA
BRANCH   7   9
HETATM    9  O   LIG     1      15.662  34.950  20.834  1.00  0.00    -0.318 OA
BRANCH   9  10
HETATM   10  C   LIG     1      15.800  33.664  20.234  1.00  0.00     0.179 C 
BRANCH  10  11
HETATM   11  C   LIG     1      14.589  32.785  20.571  1.00  0.00     0.026 C 
BRANCH  11  12
HETATM   12  C   LIG     1      14.829  31.301  20.251  1.00  0.00    -0.002 C 
HETATM   13  C   LIG     1      16.296  30.992  19.956  1.00  0.00     0.005 C 
ENDBRANCH  11  12
ENDBRANCH  10  11
ENDBRANCH   9  10
ENDBRANCH   7   9
ENDBRANCH   4   7
BRANCH   1  14
HETATM   14  O   LIG     1      17.438  38.768  25.784  1.00  0.00    -0.361 OA
HETATM   15  H   LIG     1      17.075  38.430  26.668  1.00  0.00     0.217 HD
ENDBRANCH   1  14
TORSDOF 6
ENDMDL
