REMARK  3 active torsions:
REMARK  status: ('A' for Active; 'I' for Inactive)
REMARK    1  A    between atoms: C_2  and  C_9 
REMARK       I    between atoms: C_2  and  N_3 
REMARK    2  A    between atoms: C_10  and  C_11 
REMARK    3  A    between atoms: C_12  and  C_13 
ROOT
HETATM    1  C   LIG     1       0.181   0.325  -1.081  1.00  0.00     0.001 C 
HETATM    2  C   LIG     1       1.220   1.132  -0.822  1.00  0.00     0.011 C 
ENDROOT
BRANCH   1   3
HETATM    3  C   LIG     1       0.230  -1.153  -0.977  1.00  0.00     0.005 C 
HETATM    4  C   LIG     1      -0.825  -1.953  -1.185  1.00  0.00     0.074 C 
BRANCH   4   5
HETATM    5  C   LIG     1      -2.203  -1.484  -1.437  1.00  0.00     0.243 C 
HETATM    6  O   LIG     1      -2.852  -2.021  -2.374  1.00  0.00    -0.268 OA
HETATM    7  N   LIG     1      -2.838  -0.493  -0.604  1.00  0.00    -0.349 N 
HETATM    8  C   LIG     1      -2.494  -0.348   0.817  1.00  0.00     0.126 C 
HETATM    9  C   LIG     1      -3.831   0.430  -1.168  1.00  0.00     0.126 C 
HETATM   10  C   LIG     1      -3.768  -0.373   1.668  1.00  0.00     0.020 C 
HETATM   11  C   LIG     1      -4.793   0.644   1.153  1.00  0.00     0.003 C 
HETATM   12  C   LIG     1      -5.111   0.400  -0.328  1.00  0.00     0.020 C 
ENDBRANCH   4   5
ENDBRANCH   1   3
BRANCH   2  13
HETATM   13  C   LIG     1       2.586   0.676  -0.496  1.00  0.00    -0.033 A 
HETATM   14  C   LIG     1       3.292  -0.202  -1.361  1.00  0.00     0.014 A 
HETATM   15  C   LIG     1       4.610  -0.591  -1.062  1.00  0.00     0.040 A 
HETATM   16  C   LIG     1       5.196  -0.070   0.087  1.00  0.00     0.105 A 
HETATM   17  C   LIG     1       4.536   0.789   0.904  1.00  0.00     0.105 A 
HETATM   18  O   LIG     1       6.465  -0.296   0.585  1.00  0.00    -0.323 OA
HETATM   19  C   LIG     1       3.231   1.199   0.645  1.00  0.00     0.051 A 
HETATM   20  O   LIG     1       5.358   1.148   1.955  1.00  0.00    -0.323 OA
HETATM   21  C   LIG     1       6.611   0.470   1.789  1.00  0.00     0.352 A 
ENDBRANCH   2  13
TORSDOF 3
