MODEL 1
REMARK VINA RESULT:      -9.2      0.000      0.000
REMARK  3 active torsions:
REMARK  status: ('A' for Active; 'I' for Inactive)
REMARK    1  A    between atoms: C_2  and  C_9 
REMARK       I    between atoms: C_2  and  N_3 
REMARK    2  A    between atoms: C_10  and  C_11 
REMARK    3  A    between atoms: C_12  and  C_13 
ROOT
HETATM    1  C   LIG     1      17.882  39.039  22.892  1.00  0.00     0.001 C 
HETATM    2  C   LIG     1      18.934  39.052  22.061  1.00  0.00     0.011 C 
ENDROOT
BRANCH   1   3
HETATM    3  C   LIG     1      16.506  38.664  22.486  1.00  0.00     0.005 C 
HETATM    4  C   LIG     1      15.970  37.453  22.691  1.00  0.00     0.074 C 
BRANCH   4   5
HETATM    5  C   LIG     1      16.695  36.291  23.245  1.00  0.00     0.243 C 
HETATM    6  O   LIG     1      17.088  35.400  22.447  1.00  0.00    -0.268 OA
HETATM    7  N   LIG     1      17.021  36.190  24.646  1.00  0.00    -0.349 N 
HETATM    8  C   LIG     1      17.250  37.385  25.471  1.00  0.00     0.126 C 
HETATM    9  C   LIG     1      17.099  34.878  25.301  1.00  0.00     0.126 C 
HETATM   10  C   LIG     1      18.582  37.256  26.217  1.00  0.00     0.020 C 
HETATM   11  C   LIG     1      18.657  35.929  26.982  1.00  0.00     0.003 C 
HETATM   12  C   LIG     1      18.433  34.739  26.039  1.00  0.00     0.020 C 
ENDBRANCH   4   5
ENDBRANCH   1   3
BRANCH   2  13
HETATM   13  C   LIG     1      18.869  38.796  20.608  1.00  0.00    -0.033 A 
HETATM   14  C   LIG     1      18.838  37.472  20.097  1.00  0.00     0.014 A 
HETATM   15  C   LIG     1      18.729  37.243  18.714  1.00  0.00     0.040 A 
HETATM   16  C   LIG     1      18.630  38.351  17.878  1.00  0.00     0.105 A 
HETATM   17  C   LIG     1      18.634  39.618  18.362  1.00  0.00     0.105 A 
HETATM   18  O   LIG     1      18.510  38.384  16.502  1.00  0.00    -0.323 OA
HETATM   19  C   LIG     1      18.740  39.888  19.724  1.00  0.00     0.051 A 
HETATM   20  O   LIG     1      18.514  40.511  17.315  1.00  0.00    -0.323 OA
HETATM   21  C   LIG     1      18.433  39.758  16.097  1.00  0.00     0.352 A 
ENDBRANCH   2  13
TORSDOF 3
ENDMDL
MODEL 2
REMARK VINA RESULT:      -8.7      5.798      6.983
REMARK  3 active torsions:
REMARK  status: ('A' for Active; 'I' for Inactive)
REMARK    1  A    between atoms: C_2  and  C_9 
REMARK       I    between atoms: C_2  and  N_3 
REMARK    2  A    between atoms: C_10  and  C_11 
REMARK    3  A    between atoms: C_12  and  C_13 
ROOT
HETATM    1  C   LIG     1      15.468  34.680  18.465  1.00  0.00     0.001 C 
HETATM    2  C   LIG     1      15.236  34.426  17.169  1.00  0.00     0.011 C 
ENDROOT
BRANCH   1   3
HETATM    3  C   LIG     1      15.542  33.638  19.516  1.00  0.00     0.005 C 
HETATM    4  C   LIG     1      15.429  33.889  20.828  1.00  0.00     0.074 C 
BRANCH   4   5
HETATM    5  C   LIG     1      15.327  35.237  21.423  1.00  0.00     0.243 C 
HETATM    6  O   LIG     1      14.276  35.901  21.215  1.00  0.00    -0.268 OA
HETATM    7  N   LIG     1      16.353  35.774  22.282  1.00  0.00    -0.349 N 
HETATM    8  C   LIG     1      17.190  34.902  23.117  1.00  0.00     0.126 C 
HETATM    9  C   LIG     1      16.614  37.219  22.320  1.00  0.00     0.126 C 
HETATM   10  C   LIG     1      17.173  35.395  24.568  1.00  0.00     0.020 C 
HETATM   11  C   LIG     1      17.526  36.885  24.647  1.00  0.00     0.003 C 
HETATM   12  C   LIG     1      16.586  37.718  23.767  1.00  0.00     0.020 C 
ENDBRANCH   4   5
ENDBRANCH   1   3
BRANCH   2  13
HETATM   13  C   LIG     1      14.919  33.096  16.610  1.00  0.00    -0.033 A 
HETATM   14  C   LIG     1      13.762  32.384  17.023  1.00  0.00     0.014 A 
HETATM   15  C   LIG     1      13.447  31.139  16.448  1.00  0.00     0.040 A 
HETATM   16  C   LIG     1      14.290  30.651  15.455  1.00  0.00     0.105 A 
HETATM   17  C   LIG     1      15.383  31.339  15.038  1.00  0.00     0.105 A 
HETATM   18  O   LIG     1      14.191  29.470  14.745  1.00  0.00    -0.323 OA
HETATM   19  C   LIG     1      15.730  32.573  15.581  1.00  0.00     0.051 A 
HETATM   20  O   LIG     1      16.024  30.625  14.044  1.00  0.00    -0.323 OA
HETATM   21  C   LIG     1      15.289  29.413  13.825  1.00  0.00     0.352 A 
ENDBRANCH   2  13
TORSDOF 3
ENDMDL
MODEL 3
REMARK VINA RESULT:      -8.0      5.731      8.326
REMARK  3 active torsions:
REMARK  status: ('A' for Active; 'I' for Inactive)
REMARK    1  A    between atoms: C_2  and  C_9 
REMARK       I    between atoms: C_2  and  N_3 
REMARK    2  A    between atoms: C_10  and  C_11 
REMARK    3  A    between atoms: C_12  and  C_13 
ROOT
HETATM    1  C   LIG     1      15.392  33.502  19.281  1.00  0.00     0.001 C 
HETATM    2  C   LIG     1      15.618  33.831  20.561  1.00  0.00     0.011 C 
ENDROOT
BRANCH   1   3
HETATM    3  C   LIG     1      15.517  34.447  18.145  1.00  0.00     0.005 C 
HETATM    4  C   LIG     1      14.970  34.243  16.939  1.00  0.00     0.074 C 
BRANCH   4   5
HETATM    5  C   LIG     1      14.265  33.011  16.529  1.00  0.00     0.243 C 
HETATM    6  O   LIG     1      13.039  32.910  16.802  1.00  0.00    -0.268 OA
HETATM    7  N   LIG     1      14.918  31.971  15.774  1.00  0.00    -0.349 N 
HETATM    8  C   LIG     1      16.019  32.268  14.848  1.00  0.00     0.126 C 
HETATM    9  C   LIG     1      14.518  30.567  15.938  1.00  0.00     0.126 C 
HETATM   10  C   LIG     1      15.731  31.647  13.478  1.00  0.00     0.020 C 
HETATM   11  C   LIG     1      15.393  30.157  13.609  1.00  0.00     0.003 C 
HETATM   12  C   LIG     1      14.217  29.945  14.572  1.00  0.00     0.020 C 
ENDBRANCH   4   5
ENDBRANCH   1   3
BRANCH   2  13
HETATM   13  C   LIG     1      15.922  35.192  21.045  1.00  0.00    -0.033 A 
HETATM   14  C   LIG     1      15.034  35.876  21.918  1.00  0.00     0.014 A 
HETATM   15  C   LIG     1      15.359  37.153  22.409  1.00  0.00     0.040 A 
HETATM   16  C   LIG     1      16.579  37.704  22.030  1.00  0.00     0.105 A 
HETATM   17  C   LIG     1      17.442  37.046  21.216  1.00  0.00     0.105 A 
HETATM   18  O   LIG     1      17.117  38.927  22.380  1.00  0.00    -0.323 OA
HETATM   19  C   LIG     1      17.160  35.780  20.708  1.00  0.00     0.051 A 
HETATM   20  O   LIG     1      18.568  37.821  21.017  1.00  0.00    -0.323 OA
HETATM   21  C   LIG     1      18.400  39.043  21.748  1.00  0.00     0.352 A 
ENDBRANCH   2  13
TORSDOF 3
ENDMDL
MODEL 4
REMARK VINA RESULT:      -7.8      5.948      8.497
REMARK  3 active torsions:
REMARK  status: ('A' for Active; 'I' for Inactive)
REMARK    1  A    between atoms: C_2  and  C_9 
REMARK       I    between atoms: C_2  and  N_3 
REMARK    2  A    between atoms: C_10  and  C_11 
REMARK    3  A    between atoms: C_12  and  C_13 
ROOT
HETATM    1  C   LIG     1      15.330  33.213  18.880  1.00  0.00     0.001 C 
HETATM    2  C   LIG     1      15.678  33.435  20.156  1.00  0.00     0.011 C 
ENDROOT
BRANCH   1   3
HETATM    3  C   LIG     1      15.156  34.281  17.868  1.00  0.00     0.005 C 
HETATM    4  C   LIG     1      15.310  34.095  16.549  1.00  0.00     0.074 C 
BRANCH   4   5
HETATM    5  C   LIG     1      15.779  32.842  15.923  1.00  0.00     0.243 C 
HETATM    6  O   LIG     1      17.004  32.558  16.005  1.00  0.00    -0.268 OA
HETATM    7  N   LIG     1      14.870  31.915  15.294  1.00  0.00    -0.349 N 
HETATM    8  C   LIG     1      13.477  31.781  15.740  1.00  0.00     0.126 C 
HETATM    9  C   LIG     1      15.309  31.097  14.157  1.00  0.00     0.126 C 
HETATM   10  C   LIG     1      13.153  30.308  16.005  1.00  0.00     0.020 C 
HETATM   11  C   LIG     1      13.522  29.438  14.798  1.00  0.00     0.003 C 
HETATM   12  C   LIG     1      14.998  29.621  14.422  1.00  0.00     0.020 C 
ENDBRANCH   4   5
ENDBRANCH   1   3
BRANCH   2  13
HETATM   13  C   LIG     1      15.839  34.768  20.770  1.00  0.00    -0.033 A 
HETATM   14  C   LIG     1      14.818  35.330  21.582  1.00  0.00     0.014 A 
HETATM   15  C   LIG     1      15.004  36.580  22.199  1.00  0.00     0.040 A 
HETATM   16  C   LIG     1      16.221  37.226  22.005  1.00  0.00     0.105 A 
HETATM   17  C   LIG     1      17.210  36.682  21.251  1.00  0.00     0.105 A 
HETATM   18  O   LIG     1      16.639  38.445  22.503  1.00  0.00    -0.323 OA
HETATM   19  C   LIG     1      17.067  35.448  20.623  1.00  0.00     0.051 A 
HETATM   20  O   LIG     1      18.300  37.532  21.240  1.00  0.00    -0.323 OA
HETATM   21  C   LIG     1      17.974  38.681  22.034  1.00  0.00     0.352 A 
ENDBRANCH   2  13
TORSDOF 3
ENDMDL
MODEL 5
REMARK VINA RESULT:      -7.8      5.651      8.509
REMARK  3 active torsions:
REMARK  status: ('A' for Active; 'I' for Inactive)
REMARK    1  A    between atoms: C_2  and  C_9 
REMARK       I    between atoms: C_2  and  N_3 
REMARK    2  A    between atoms: C_10  and  C_11 
REMARK    3  A    between atoms: C_12  and  C_13 
ROOT
HETATM    1  C   LIG     1      15.379  33.430  19.393  1.00  0.00     0.001 C 
HETATM    2  C   LIG     1      15.802  33.632  20.649  1.00  0.00     0.011 C 
ENDROOT
BRANCH   1   3
HETATM    3  C   LIG     1      15.564  34.401  18.287  1.00  0.00     0.005 C 
HETATM    4  C   LIG     1      15.042  34.248  17.062  1.00  0.00     0.074 C 
BRANCH   4   5
HETATM    5  C   LIG     1      14.307  33.052  16.602  1.00  0.00     0.243 C 
HETATM    6  O   LIG     1      13.072  32.983  16.845  1.00  0.00    -0.268 OA
HETATM    7  N   LIG     1      14.942  32.013  15.830  1.00  0.00    -0.349 N 
HETATM    8  C   LIG     1      16.073  32.301  14.937  1.00  0.00     0.126 C 
HETATM    9  C   LIG     1      14.494  30.619  15.944  1.00  0.00     0.126 C 
HETATM   10  C   LIG     1      15.796  31.729  13.543  1.00  0.00     0.020 C 
HETATM   11  C   LIG     1      15.407  30.248  13.623  1.00  0.00     0.003 C 
HETATM   12  C   LIG     1      14.204  30.047  14.554  1.00  0.00     0.020 C 
ENDBRANCH   4   5
ENDBRANCH   1   3
BRANCH   2  13
HETATM   13  C   LIG     1      16.420  34.878  21.145  1.00  0.00    -0.033 A 
HETATM   14  C   LIG     1      17.090  35.766  20.262  1.00  0.00     0.014 A 
HETATM   15  C   LIG     1      17.633  36.972  20.740  1.00  0.00     0.040 A 
HETATM   16  C   LIG     1      17.470  37.268  22.089  1.00  0.00     0.105 A 
HETATM   17  C   LIG     1      16.809  36.436  22.933  1.00  0.00     0.105 A 
HETATM   18  O   LIG     1      17.904  38.380  22.786  1.00  0.00    -0.323 OA
HETATM   19  C   LIG     1      16.257  35.233  22.501  1.00  0.00     0.051 A 
HETATM   20  O   LIG     1      16.792  36.984  24.201  1.00  0.00    -0.323 OA
HETATM   21  C   LIG     1      17.488  38.237  24.151  1.00  0.00     0.352 A 
ENDBRANCH   2  13
TORSDOF 3
ENDMDL
MODEL 6
REMARK VINA RESULT:      -7.6      1.206      2.309
REMARK  3 active torsions:
REMARK  status: ('A' for Active; 'I' for Inactive)
REMARK    1  A    between atoms: C_2  and  C_9 
REMARK       I    between atoms: C_2  and  N_3 
REMARK    2  A    between atoms: C_10  and  C_11 
REMARK    3  A    between atoms: C_12  and  C_13 
ROOT
HETATM    1  C   LIG     1      17.522  35.418  21.493  1.00  0.00     0.001 C 
HETATM    2  C   LIG     1      18.572  35.940  20.844  1.00  0.00     0.011 C 
ENDROOT
BRANCH   1   3
HETATM    3  C   LIG     1      16.150  35.978  21.443  1.00  0.00     0.005 C 
HETATM    4  C   LIG     1      15.695  36.916  22.285  1.00  0.00     0.074 C 
BRANCH   4   5
HETATM    5  C   LIG     1      16.443  37.446  23.443  1.00  0.00     0.243 C 
HETATM    6  O   LIG     1      16.258  38.649  23.771  1.00  0.00    -0.268 OA
HETATM    7  N   LIG     1      17.310  36.613  24.239  1.00  0.00    -0.349 N 
HETATM    8  C   LIG     1      17.061  35.174  24.399  1.00  0.00     0.126 C 
HETATM    9  C   LIG     1      18.497  37.181  24.891  1.00  0.00     0.126 C 
HETATM   10  C   LIG     1      17.063  34.806  25.886  1.00  0.00     0.020 C 
HETATM   11  C   LIG     1      18.335  35.313  26.576  1.00  0.00     0.003 C 
HETATM   12  C   LIG     1      18.499  36.826  26.380  1.00  0.00     0.020 C 
ENDBRANCH   4   5
ENDBRANCH   1   3
BRANCH   2  13
HETATM   13  C   LIG     1      18.549  37.196  20.069  1.00  0.00    -0.033 A 
HETATM   14  C   LIG     1      18.678  38.456  20.712  1.00  0.00     0.014 A 
HETATM   15  C   LIG     1      18.702  39.643  19.957  1.00  0.00     0.040 A 
HETATM   16  C   LIG     1      18.620  39.534  18.573  1.00  0.00     0.105 A 
HETATM   17  C   LIG     1      18.523  38.332  17.951  1.00  0.00     0.105 A 
HETATM   18  O   LIG     1      18.628  40.542  17.628  1.00  0.00    -0.323 OA
HETATM   19  C   LIG     1      18.495  37.134  18.660  1.00  0.00     0.051 A 
HETATM   20  O   LIG     1      18.467  38.524  16.584  1.00  0.00    -0.323 OA
HETATM   21  C   LIG     1      18.530  39.935  16.332  1.00  0.00     0.352 A 
ENDBRANCH   2  13
TORSDOF 3
ENDMDL
MODEL 7
REMARK VINA RESULT:      -7.2      5.046      7.920
REMARK  3 active torsions:
REMARK  status: ('A' for Active; 'I' for Inactive)
REMARK    1  A    between atoms: C_2  and  C_9 
REMARK       I    between atoms: C_2  and  N_3 
REMARK    2  A    between atoms: C_10  and  C_11 
REMARK    3  A    between atoms: C_12  and  C_13 
ROOT
HETATM    1  C   LIG     1      16.003  35.052  19.750  1.00  0.00     0.001 C 
HETATM    2  C   LIG     1      16.806  35.928  20.371  1.00  0.00     0.011 C 
ENDROOT
BRANCH   1   3
HETATM    3  C   LIG     1      15.028  34.179  20.446  1.00  0.00     0.005 C 
HETATM    4  C   LIG     1      14.839  32.885  20.152  1.00  0.00     0.074 C 
BRANCH   4   5
HETATM    5  C   LIG     1      15.485  32.171  19.032  1.00  0.00     0.243 C 
HETATM    6  O   LIG     1      16.529  31.509  19.272  1.00  0.00    -0.268 OA
HETATM    7  N   LIG     1      14.917  32.156  17.706  1.00  0.00    -0.349 N 
HETATM    8  C   LIG     1      13.468  32.257  17.489  1.00  0.00     0.126 C 
HETATM    9  C   LIG     1      15.785  32.074  16.525  1.00  0.00     0.126 C 
HETATM   10  C   LIG     1      12.996  31.119  16.577  1.00  0.00     0.020 C 
HETATM   11  C   LIG     1      13.831  31.062  15.293  1.00  0.00     0.003 C 
HETATM   12  C   LIG     1      15.326  30.930  15.616  1.00  0.00     0.020 C 
ENDBRANCH   4   5
ENDBRANCH   1   3
BRANCH   2  13
HETATM   13  C   LIG     1      16.916  36.085  21.835  1.00  0.00    -0.033 A 
HETATM   14  C   LIG     1      17.111  34.961  22.681  1.00  0.00     0.014 A 
HETATM   15  C   LIG     1      17.261  35.130  24.069  1.00  0.00     0.040 A 
HETATM   16  C   LIG     1      17.236  36.427  24.572  1.00  0.00     0.105 A 
HETATM   17  C   LIG     1      17.076  37.507  23.766  1.00  0.00     0.105 A 
HETATM   18  O   LIG     1      17.366  36.845  25.882  1.00  0.00    -0.323 OA
HETATM   19  C   LIG     1      16.923  37.384  22.388  1.00  0.00     0.051 A 
HETATM   20  O   LIG     1      17.099  38.658  24.530  1.00  0.00    -0.323 OA
HETATM   21  C   LIG     1      17.283  38.277  25.900  1.00  0.00     0.352 A 
ENDBRANCH   2  13
TORSDOF 3
ENDMDL
MODEL 8
REMARK VINA RESULT:      -7.1      6.521      7.915
REMARK  3 active torsions:
REMARK  status: ('A' for Active; 'I' for Inactive)
REMARK    1  A    between atoms: C_2  and  C_9 
REMARK       I    between atoms: C_2  and  N_3 
REMARK    2  A    between atoms: C_10  and  C_11 
REMARK    3  A    between atoms: C_12  and  C_13 
ROOT
HETATM    1  C   LIG     1      14.991  33.815  18.071  1.00  0.00     0.001 C 
HETATM    2  C   LIG     1      14.762  33.758  16.751  1.00  0.00     0.011 C 
ENDROOT
BRANCH   1   3
HETATM    3  C   LIG     1      15.502  32.681  18.877  1.00  0.00     0.005 C 
HETATM    4  C   LIG     1      15.406  32.608  20.211  1.00  0.00     0.074 C 
BRANCH   4   5
HETATM    5  C   LIG     1      14.884  33.683  21.080  1.00  0.00     0.243 C 
HETATM    6  O   LIG     1      13.932  33.408  21.859  1.00  0.00    -0.268 OA
HETATM    7  N   LIG     1      15.474  34.998  21.108  1.00  0.00    -0.349 N 
HETATM    8  C   LIG     1      16.902  35.206  20.829  1.00  0.00     0.126 C 
HETATM    9  C   LIG     1      14.649  36.180  21.386  1.00  0.00     0.126 C 
HETATM   10  C   LIG     1      17.539  36.031  21.952  1.00  0.00     0.020 C 
HETATM   11  C   LIG     1      16.745  37.317  22.207  1.00  0.00     0.003 C 
HETATM   12  C   LIG     1      15.275  37.002  22.516  1.00  0.00     0.020 C 
ENDBRANCH   4   5
ENDBRANCH   1   3
BRANCH   2  13
HETATM   13  C   LIG     1      14.885  32.542  15.922  1.00  0.00    -0.033 A 
HETATM   14  C   LIG     1      16.101  32.224  15.261  1.00  0.00     0.014 A 
HETATM   15  C   LIG     1      16.218  31.038  14.514  1.00  0.00     0.040 A 
HETATM   16  C   LIG     1      15.117  30.188  14.468  1.00  0.00     0.105 A 
HETATM   17  C   LIG     1      13.961  30.474  15.118  1.00  0.00     0.105 A 
HETATM   18  O   LIG     1      14.990  28.979  13.812  1.00  0.00    -0.323 OA
HETATM   19  C   LIG     1      13.804  31.636  15.868  1.00  0.00     0.051 A 
HETATM   20  O   LIG     1      13.051  29.457  14.905  1.00  0.00    -0.323 OA
HETATM   21  C   LIG     1      13.673  28.473  14.067  1.00  0.00     0.352 A 
ENDBRANCH   2  13
TORSDOF 3
ENDMDL
MODEL 9
REMARK VINA RESULT:      -7.1      3.247      4.954
REMARK  3 active torsions:
REMARK  status: ('A' for Active; 'I' for Inactive)
REMARK    1  A    between atoms: C_2  and  C_9 
REMARK       I    between atoms: C_2  and  N_3 
REMARK    2  A    between atoms: C_10  and  C_11 
REMARK    3  A    between atoms: C_12  and  C_13 
ROOT
HETATM    1  C   LIG     1      17.415  35.557  21.713  1.00  0.00     0.001 C 
HETATM    2  C   LIG     1      18.451  35.921  20.944  1.00  0.00     0.011 C 
ENDROOT
BRANCH   1   3
HETATM    3  C   LIG     1      16.132  36.297  21.785  1.00  0.00     0.005 C 
HETATM    4  C   LIG     1      14.933  35.738  21.570  1.00  0.00     0.074 C 
BRANCH   4   5
HETATM    5  C   LIG     1      14.718  34.345  21.127  1.00  0.00     0.243 C 
HETATM    6  O   LIG     1      13.982  33.604  21.831  1.00  0.00    -0.268 OA
HETATM    7  N   LIG     1      15.264  33.843  19.890  1.00  0.00    -0.349 N 
HETATM    8  C   LIG     1      15.492  34.724  18.737  1.00  0.00     0.126 C 
HETATM    9  C   LIG     1      15.643  32.431  19.761  1.00  0.00     0.126 C 
HETATM   10  C   LIG     1      14.841  34.125  17.485  1.00  0.00     0.020 C 
HETATM   11  C   LIG     1      15.286  32.673  17.277  1.00  0.00     0.003 C 
HETATM   12  C   LIG     1      14.986  31.823  18.518  1.00  0.00     0.020 C 
ENDBRANCH   4   5
ENDBRANCH   1   3
BRANCH   2  13
HETATM   13  C   LIG     1      18.514  37.155  20.137  1.00  0.00    -0.033 A 
HETATM   14  C   LIG     1      18.747  38.418  20.745  1.00  0.00     0.014 A 
HETATM   15  C   LIG     1      18.851  39.580  19.959  1.00  0.00     0.040 A 
HETATM   16  C   LIG     1      18.743  39.442  18.579  1.00  0.00     0.105 A 
HETATM   17  C   LIG     1      18.547  38.236  17.991  1.00  0.00     0.105 A 
HETATM   18  O   LIG     1      18.816  40.422  17.608  1.00  0.00    -0.323 OA
HETATM   19  C   LIG     1      18.437  37.062  18.731  1.00  0.00     0.051 A 
HETATM   20  O   LIG     1      18.488  38.397  16.620  1.00  0.00    -0.323 OA
HETATM   21  C   LIG     1      18.656  39.791  16.330  1.00  0.00     0.352 A 
ENDBRANCH   2  13
TORSDOF 3
ENDMDL
MODEL 10
REMARK VINA RESULT:      -7.0      4.938      6.050
REMARK  3 active torsions:
REMARK  status: ('A' for Active; 'I' for Inactive)
REMARK    1  A    between atoms: C_2  and  C_9 
REMARK       I    between atoms: C_2  and  N_3 
REMARK    2  A    between atoms: C_10  and  C_11 
REMARK    3  A    between atoms: C_12  and  C_13 
ROOT
HETATM    1  C   LIG     1      15.089  33.328  20.601  1.00  0.00     0.001 C 
HETATM    2  C   LIG     1      14.781  32.197  19.951  1.00  0.00     0.011 C 
ENDROOT
BRANCH   1   3
HETATM    3  C   LIG     1      15.451  34.600  19.931  1.00  0.00     0.005 C 
HETATM    4  C   LIG     1      16.313  35.493  20.436  1.00  0.00     0.074 C 
BRANCH   4   5
HETATM    5  C   LIG     1      16.940  35.399  21.771  1.00  0.00     0.243 C 
HETATM    6  O   LIG     1      17.740  34.449  21.986  1.00  0.00    -0.268 OA
HETATM    7  N   LIG     1      16.718  36.392  22.792  1.00  0.00    -0.349 N 
HETATM    8  C   LIG     1      16.431  37.793  22.453  1.00  0.00     0.126 C 
HETATM    9  C   LIG     1      16.740  36.020  24.212  1.00  0.00     0.126 C 
HETATM   10  C   LIG     1      17.380  38.721  23.219  1.00  0.00     0.020 C 
HETATM   11  C   LIG     1      17.359  38.411  24.720  1.00  0.00     0.003 C 
HETATM   12  C   LIG     1      17.696  36.936  24.980  1.00  0.00     0.020 C 
ENDBRANCH   4   5
ENDBRANCH   1   3
BRANCH   2  13
HETATM   13  C   LIG     1      14.852  32.015  18.487  1.00  0.00    -0.033 A 
HETATM   14  C   LIG     1      13.853  31.285  17.790  1.00  0.00     0.014 A 
HETATM   15  C   LIG     1      13.907  31.159  16.390  1.00  0.00     0.040 A 
HETATM   16  C   LIG     1      14.952  31.789  15.722  1.00  0.00     0.105 A 
HETATM   17  C   LIG     1      15.896  32.509  16.380  1.00  0.00     0.105 A 
HETATM   18  O   LIG     1      15.216  31.815  14.366  1.00  0.00    -0.323 OA
HETATM   19  C   LIG     1      15.879  32.658  17.764  1.00  0.00     0.051 A 
HETATM   20  O   LIG     1      16.799  33.025  15.470  1.00  0.00    -0.323 OA
HETATM   21  C   LIG     1      16.398  32.601  14.159  1.00  0.00     0.352 A 
ENDBRANCH   2  13
TORSDOF 3
ENDMDL
MODEL 11
REMARK VINA RESULT:      -6.8      4.284      6.342
REMARK  3 active torsions:
REMARK  status: ('A' for Active; 'I' for Inactive)
REMARK    1  A    between atoms: C_2  and  C_9 
REMARK       I    between atoms: C_2  and  N_3 
REMARK    2  A    between atoms: C_10  and  C_11 
REMARK    3  A    between atoms: C_12  and  C_13 
ROOT
HETATM    1  C   LIG     1      16.378  34.904  22.069  1.00  0.00     0.001 C 
HETATM    2  C   LIG     1      16.579  33.872  21.237  1.00  0.00     0.011 C 
ENDROOT
BRANCH   1   3
HETATM    3  C   LIG     1      15.295  35.903  21.908  1.00  0.00     0.005 C 
HETATM    4  C   LIG     1      15.496  37.228  21.888  1.00  0.00     0.074 C 
BRANCH   4   5
HETATM    5  C   LIG     1      16.796  37.888  22.130  1.00  0.00     0.243 C 
HETATM    6  O   LIG     1      17.116  38.152  23.320  1.00  0.00    -0.268 OA
HETATM    7  N   LIG     1      17.723  38.167  21.062  1.00  0.00    -0.349 N 
HETATM    8  C   LIG     1      17.786  37.326  19.859  1.00  0.00     0.126 C 
HETATM    9  C   LIG     1      18.614  39.332  21.133  1.00  0.00     0.126 C 
HETATM   10  C   LIG     1      19.233  36.889  19.603  1.00  0.00     0.020 C 
HETATM   11  C   LIG     1      20.176  38.097  19.586  1.00  0.00     0.003 C 
HETATM   12  C   LIG     1      20.062  38.900  20.889  1.00  0.00     0.020 C 
ENDBRANCH   4   5
ENDBRANCH   1   3
BRANCH   2  13
HETATM   13  C   LIG     1      15.827  33.632  19.989  1.00  0.00    -0.033 A 
HETATM   14  C   LIG     1      15.732  34.633  18.986  1.00  0.00     0.014 A 
HETATM   15  C   LIG     1      15.052  34.374  17.782  1.00  0.00     0.040 A 
HETATM   16  C   LIG     1      14.505  33.107  17.605  1.00  0.00     0.105 A 
HETATM   17  C   LIG     1      14.614  32.139  18.548  1.00  0.00     0.105 A 
HETATM   18  O   LIG     1      13.803  32.616  16.520  1.00  0.00    -0.323 OA
HETATM   19  C   LIG     1      15.278  32.353  19.753  1.00  0.00     0.051 A 
HETATM   20  O   LIG     1      13.990  30.989  18.103  1.00  0.00    -0.323 OA
HETATM   21  C   LIG     1      13.452  31.254  16.800  1.00  0.00     0.352 A 
ENDBRANCH   2  13
TORSDOF 3
ENDMDL
MODEL 12
REMARK VINA RESULT:      -6.3      7.856      9.715
REMARK  3 active torsions:
REMARK  status: ('A' for Active; 'I' for Inactive)
REMARK    1  A    between atoms: C_2  and  C_9 
REMARK       I    between atoms: C_2  and  N_3 
REMARK    2  A    between atoms: C_10  and  C_11 
REMARK    3  A    between atoms: C_12  and  C_13 
ROOT
HETATM    1  C   LIG     1      18.380  33.150  12.290  1.00  0.00     0.001 C 
HETATM    2  C   LIG     1      19.381  33.185  11.399  1.00  0.00     0.011 C 
ENDROOT
BRANCH   1   3
HETATM    3  C   LIG     1      18.237  34.101  13.418  1.00  0.00     0.005 C 
HETATM    4  C   LIG     1      17.545  33.838  14.536  1.00  0.00     0.074 C 
BRANCH   4   5
HETATM    5  C   LIG     1      16.738  32.622  14.762  1.00  0.00     0.243 C 
HETATM    6  O   LIG     1      17.140  31.539  14.257  1.00  0.00    -0.268 OA
HETATM    7  N   LIG     1      15.560  32.629  15.593  1.00  0.00    -0.349 N 
HETATM    8  C   LIG     1      15.420  33.559  16.721  1.00  0.00     0.126 C 
HETATM    9  C   LIG     1      14.442  31.720  15.309  1.00  0.00     0.126 C 
HETATM   10  C   LIG     1      15.044  32.788  17.991  1.00  0.00     0.020 C 
HETATM   11  C   LIG     1      13.824  31.892  17.748  1.00  0.00     0.003 C 
HETATM   12  C   LIG     1      14.069  30.938  16.572  1.00  0.00     0.020 C 
ENDBRANCH   4   5
ENDBRANCH   1   3
BRANCH   2  13
HETATM   13  C   LIG     1      20.539  34.100  11.461  1.00  0.00    -0.033 A 
HETATM   14  C   LIG     1      20.841  34.973  10.382  1.00  0.00     0.014 A 
HETATM   15  C   LIG     1      21.919  35.873  10.473  1.00  0.00     0.040 A 
HETATM   16  C   LIG     1      22.652  35.890  11.655  1.00  0.00     0.105 A 
HETATM   17  C   LIG     1      22.352  35.077  12.699  1.00  0.00     0.105 A 
HETATM   18  O   LIG     1      23.738  36.678  11.983  1.00  0.00    -0.323 OA
HETATM   19  C   LIG     1      21.295  34.172  12.650  1.00  0.00     0.051 A 
HETATM   20  O   LIG     1      23.233  35.315  13.736  1.00  0.00    -0.323 OA
HETATM   21  C   LIG     1      24.145  36.339  13.316  1.00  0.00     0.352 A 
ENDBRANCH   2  13
TORSDOF 3
ENDMDL
