REMARK  4 active torsions:
REMARK  status: ('A' for Active; 'I' for Inactive)
REMARK    1  A    between atoms: C_3  and  O_4 
REMARK    2  A    between atoms: O_4  and  C_5 
REMARK    3  A    between atoms: C_5  and  C_6 
REMARK    4  A    between atoms: C_6  and  O_7 
ROOT
HETATM    1 CL   LIG     1      -0.968  -0.468   2.820  1.00  0.00    -0.081 Cl
HETATM    2  C   LIG     1      -1.385  -0.360   1.117  1.00  0.00     0.069 A 
HETATM    3  C   LIG     1      -0.409  -0.025   0.165  1.00  0.00     0.091 A 
HETATM    4  C   LIG     1      -0.774   0.055  -1.194  1.00  0.00     0.040 A 
HETATM    5  C   LIG     1      -2.092  -0.197  -1.586  1.00  0.00     0.026 A 
HETATM    6  C   LIG     1      -3.057  -0.530  -0.632  1.00  0.00     0.035 A 
HETATM    7 CL   LIG     1      -4.710  -0.846  -1.127  1.00  0.00    -0.084 Cl
HETATM    8  C   LIG     1      -2.703  -0.611   0.718  1.00  0.00     0.050 A 
ENDROOT
BRANCH   3   9
HETATM    9  O   LIG     1       0.903   0.221   0.600  1.00  0.00    -0.339 OA
BRANCH   9  10
HETATM   10  C   LIG     1       1.987   0.569  -0.256  1.00  0.00     0.285 C 
BRANCH  10  11
HETATM   11  C   LIG     1       3.222   0.766   0.565  1.00  0.00     0.164 C 
HETATM   12  O   LIG     1       3.253   1.675   1.435  1.00  0.00    -0.648 OA
BRANCH  11  13
HETATM   13  O   LIG     1       4.340  -0.043   0.380  1.00  0.00    -0.775 OA
HETATM   14  H   LIG     1       4.348  -0.785  -0.309  1.00  0.00     0.167 HD
ENDBRANCH  11  13
ENDBRANCH  10  11
ENDBRANCH   9  10
ENDBRANCH   3   9
TORSDOF 4
