MODEL 1
REMARK VINA RESULT:      -6.9      0.000      0.000
REMARK  4 active torsions:
REMARK  status: ('A' for Active; 'I' for Inactive)
REMARK    1  A    between atoms: C_3  and  O_4 
REMARK    2  A    between atoms: O_4  and  C_5 
REMARK    3  A    between atoms: C_5  and  C_6 
REMARK    4  A    between atoms: C_6  and  O_7 
ROOT
HETATM    1 CL   LIG     1      16.917  35.199  21.317  1.00  0.00    -0.081 Cl
HETATM    2  C   LIG     1      17.606  36.814  21.256  1.00  0.00     0.069 A 
HETATM    3  C   LIG     1      17.384  37.722  22.303  1.00  0.00     0.091 A 
HETATM    4  C   LIG     1      17.949  39.011  22.226  1.00  0.00     0.040 A 
HETATM    5  C   LIG     1      18.720  39.378  21.119  1.00  0.00     0.026 A 
HETATM    6  C   LIG     1      18.936  38.467  20.081  1.00  0.00     0.035 A 
HETATM    7 CL   LIG     1      19.904  38.930  18.693  1.00  0.00    -0.084 Cl
HETATM    8  C   LIG     1      18.379  37.187  20.150  1.00  0.00     0.050 A 
ENDROOT
BRANCH   3   9
HETATM    9  O   LIG     1      16.604  37.315  23.397  1.00  0.00    -0.339 OA
BRANCH   9  10
HETATM   10  C   LIG     1      17.104  36.610  24.529  1.00  0.00     0.285 C 
BRANCH  10  11
HETATM   11  C   LIG     1      17.639  37.590  25.525  1.00  0.00     0.164 C 
HETATM   12  O   LIG     1      17.092  38.718  25.645  1.00  0.00    -0.648 OA
BRANCH  11  13
HETATM   13  O   LIG     1      18.735  37.273  26.323  1.00  0.00    -0.775 OA
HETATM   14  H   LIG     1      19.036  37.881  27.075  1.00  0.00     0.167 HD
ENDBRANCH  11  13
ENDBRANCH  10  11
ENDBRANCH   9  10
ENDBRANCH   3   9
TORSDOF 4
ENDMDL
MODEL 2
REMARK VINA RESULT:      -6.8      3.412      5.451
REMARK  4 active torsions:
REMARK  status: ('A' for Active; 'I' for Inactive)
REMARK    1  A    between atoms: C_3  and  O_4 
REMARK    2  A    between atoms: O_4  and  C_5 
REMARK    3  A    between atoms: C_5  and  C_6 
REMARK    4  A    between atoms: C_6  and  O_7 
ROOT
HETATM    1 CL   LIG     1      16.789  38.991  22.753  1.00  0.00    -0.081 Cl
HETATM    2  C   LIG     1      17.070  37.467  23.579  1.00  0.00     0.069 A 
HETATM    3  C   LIG     1      16.764  36.249  22.950  1.00  0.00     0.091 A 
HETATM    4  C   LIG     1      17.000  35.042  23.638  1.00  0.00     0.040 A 
HETATM    5  C   LIG     1      17.531  35.060  24.931  1.00  0.00     0.026 A 
HETATM    6  C   LIG     1      17.833  36.276  25.550  1.00  0.00     0.035 A 
HETATM    7 CL   LIG     1      18.500  36.295  27.172  1.00  0.00    -0.084 Cl
HETATM    8  C   LIG     1      17.602  37.478  24.874  1.00  0.00     0.050 A 
ENDROOT
BRANCH   3   9
HETATM    9  O   LIG     1      16.231  36.275  21.651  1.00  0.00    -0.339 OA
BRANCH   9  10
HETATM   10  C   LIG     1      14.913  35.859  21.310  1.00  0.00     0.285 C 
BRANCH  10  11
HETATM   11  C   LIG     1      14.889  34.371  21.154  1.00  0.00     0.164 C 
HETATM   12  O   LIG     1      15.818  33.795  20.529  1.00  0.00    -0.648 OA
BRANCH  11  13
HETATM   13  O   LIG     1      13.852  33.612  21.690  1.00  0.00    -0.775 OA
HETATM   14  H   LIG     1      13.959  32.621  21.869  1.00  0.00     0.167 HD
ENDBRANCH  11  13
ENDBRANCH  10  11
ENDBRANCH   9  10
ENDBRANCH   3   9
TORSDOF 4
ENDMDL
MODEL 3
REMARK VINA RESULT:      -6.7      2.753      4.954
REMARK  4 active torsions:
REMARK  status: ('A' for Active; 'I' for Inactive)
REMARK    1  A    between atoms: C_3  and  O_4 
REMARK    2  A    between atoms: O_4  and  C_5 
REMARK    3  A    between atoms: C_5  and  C_6 
REMARK    4  A    between atoms: C_6  and  O_7 
ROOT
HETATM    1 CL   LIG     1      16.838  35.682  20.677  1.00  0.00    -0.081 Cl
HETATM    2  C   LIG     1      17.160  36.311  22.285  1.00  0.00     0.069 A 
HETATM    3  C   LIG     1      17.516  37.657  22.465  1.00  0.00     0.091 A 
HETATM    4  C   LIG     1      17.769  38.133  23.768  1.00  0.00     0.040 A 
HETATM    5  C   LIG     1      17.666  37.273  24.865  1.00  0.00     0.026 A 
HETATM    6  C   LIG     1      17.310  35.935  24.677  1.00  0.00     0.035 A 
HETATM    7 CL   LIG     1      17.181  34.858  26.056  1.00  0.00    -0.084 Cl
HETATM    8  C   LIG     1      17.058  35.455  23.388  1.00  0.00     0.050 A 
ENDROOT
BRANCH   3   9
HETATM    9  O   LIG     1      17.609  38.488  21.337  1.00  0.00    -0.339 OA
BRANCH   9  10
HETATM   10  C   LIG     1      18.722  39.326  21.040  1.00  0.00     0.285 C 
BRANCH  10  11
HETATM   11  C   LIG     1      19.372  38.856  19.778  1.00  0.00     0.164 C 
HETATM   12  O   LIG     1      18.921  37.841  19.185  1.00  0.00    -0.648 OA
BRANCH  11  13
HETATM   13  O   LIG     1      20.472  39.525  19.248  1.00  0.00    -0.775 OA
HETATM   14  H   LIG     1      21.055  39.104  18.535  1.00  0.00     0.167 HD
ENDBRANCH  11  13
ENDBRANCH  10  11
ENDBRANCH   9  10
ENDBRANCH   3   9
TORSDOF 4
ENDMDL
MODEL 4
REMARK VINA RESULT:      -6.6      2.703      3.975
REMARK  4 active torsions:
REMARK  status: ('A' for Active; 'I' for Inactive)
REMARK    1  A    between atoms: C_3  and  O_4 
REMARK    2  A    between atoms: O_4  and  C_5 
REMARK    3  A    between atoms: C_5  and  C_6 
REMARK    4  A    between atoms: C_6  and  O_7 
ROOT
HETATM    1 CL   LIG     1      16.893  38.948  23.090  1.00  0.00    -0.081 Cl
HETATM    2  C   LIG     1      17.705  38.187  21.730  1.00  0.00     0.069 A 
HETATM    3  C   LIG     1      17.340  36.896  21.316  1.00  0.00     0.091 A 
HETATM    4  C   LIG     1      18.010  36.310  20.223  1.00  0.00     0.040 A 
HETATM    5  C   LIG     1      19.024  37.009  19.561  1.00  0.00     0.026 A 
HETATM    6  C   LIG     1      19.380  38.294  19.980  1.00  0.00     0.035 A 
HETATM    7 CL   LIG     1      20.652  39.169  19.147  1.00  0.00    -0.084 Cl
HETATM    8  C   LIG     1      18.721  38.881  21.063  1.00  0.00     0.050 A 
ENDROOT
BRANCH   3   9
HETATM    9  O   LIG     1      16.318  36.227  22.008  1.00  0.00    -0.339 OA
BRANCH   9  10
HETATM   10  C   LIG     1      15.049  35.895  21.453  1.00  0.00     0.285 C 
BRANCH  10  11
HETATM   11  C   LIG     1      14.952  34.411  21.294  1.00  0.00     0.164 C 
HETATM   12  O   LIG     1      15.899  33.779  20.757  1.00  0.00    -0.648 OA
BRANCH  11  13
HETATM   13  O   LIG     1      13.827  33.717  21.731  1.00  0.00    -0.775 OA
HETATM   14  H   LIG     1      13.653  32.760  21.448  1.00  0.00     0.167 HD
ENDBRANCH  11  13
ENDBRANCH  10  11
ENDBRANCH   9  10
ENDBRANCH   3   9
TORSDOF 4
ENDMDL
MODEL 5
REMARK VINA RESULT:      -6.3      3.064      5.205
REMARK  4 active torsions:
REMARK  status: ('A' for Active; 'I' for Inactive)
REMARK    1  A    between atoms: C_3  and  O_4 
REMARK    2  A    between atoms: O_4  and  C_5 
REMARK    3  A    between atoms: C_5  and  C_6 
REMARK    4  A    between atoms: C_6  and  O_7 
ROOT
HETATM    1 CL   LIG     1      16.792  39.168  22.870  1.00  0.00    -0.081 Cl
HETATM    2  C   LIG     1      17.047  37.572  23.558  1.00  0.00     0.069 A 
HETATM    3  C   LIG     1      16.870  36.422  22.773  1.00  0.00     0.091 A 
HETATM    4  C   LIG     1      17.081  35.155  23.354  1.00  0.00     0.040 A 
HETATM    5  C   LIG     1      17.462  35.049  24.695  1.00  0.00     0.026 A 
HETATM    6  C   LIG     1      17.635  36.199  25.469  1.00  0.00     0.035 A 
HETATM    7 CL   LIG     1      18.113  36.062  27.151  1.00  0.00    -0.084 Cl
HETATM    8  C   LIG     1      17.427  37.459  24.901  1.00  0.00     0.050 A 
ENDROOT
BRANCH   3   9
HETATM    9  O   LIG     1      16.488  36.572  21.431  1.00  0.00    -0.339 OA
BRANCH   9  10
HETATM   10  C   LIG     1      17.191  36.020  20.322  1.00  0.00     0.285 C 
BRANCH  10  11
HETATM   11  C   LIG     1      18.384  36.871  20.020  1.00  0.00     0.164 C 
HETATM   12  O   LIG     1      18.345  38.105  20.261  1.00  0.00    -0.648 OA
BRANCH  11  13
HETATM   13  O   LIG     1      19.538  36.316  19.474  1.00  0.00    -0.775 OA
HETATM   14  H   LIG     1      19.513  35.446  18.957  1.00  0.00     0.167 HD
ENDBRANCH  11  13
ENDBRANCH  10  11
ENDBRANCH   9  10
ENDBRANCH   3   9
TORSDOF 4
ENDMDL
MODEL 6
REMARK VINA RESULT:      -6.1      1.765      2.289
REMARK  4 active torsions:
REMARK  status: ('A' for Active; 'I' for Inactive)
REMARK    1  A    between atoms: C_3  and  O_4 
REMARK    2  A    between atoms: O_4  and  C_5 
REMARK    3  A    between atoms: C_5  and  C_6 
REMARK    4  A    between atoms: C_6  and  O_7 
ROOT
HETATM    1 CL   LIG     1      17.057  39.361  23.049  1.00  0.00    -0.081 Cl
HETATM    2  C   LIG     1      17.722  38.441  21.709  1.00  0.00     0.069 A 
HETATM    3  C   LIG     1      17.441  37.072  21.576  1.00  0.00     0.091 A 
HETATM    4  C   LIG     1      17.990  36.360  20.491  1.00  0.00     0.040 A 
HETATM    5  C   LIG     1      18.803  37.012  19.559  1.00  0.00     0.026 A 
HETATM    6  C   LIG     1      19.077  38.375  19.698  1.00  0.00     0.035 A 
HETATM    7 CL   LIG     1      20.098  39.190  18.527  1.00  0.00    -0.084 Cl
HETATM    8  C   LIG     1      18.537  39.088  20.772  1.00  0.00     0.050 A 
ENDROOT
BRANCH   3   9
HETATM    9  O   LIG     1      16.621  36.455  22.534  1.00  0.00    -0.339 OA
BRANCH   9  10
HETATM   10  C   LIG     1      16.972  35.285  23.266  1.00  0.00     0.285 C 
BRANCH  10  11
HETATM   11  C   LIG     1      17.230  35.653  24.693  1.00  0.00     0.164 C 
HETATM   12  O   LIG     1      17.034  36.836  25.076  1.00  0.00    -0.648 OA
BRANCH  11  13
HETATM   13  O   LIG     1      17.684  34.705  25.606  1.00  0.00    -0.775 OA
HETATM   14  H   LIG     1      17.041  34.121  26.126  1.00  0.00     0.167 HD
ENDBRANCH  11  13
ENDBRANCH  10  11
ENDBRANCH   9  10
ENDBRANCH   3   9
TORSDOF 4
ENDMDL
MODEL 7
REMARK VINA RESULT:      -5.8      6.814      8.338
REMARK  4 active torsions:
REMARK  status: ('A' for Active; 'I' for Inactive)
REMARK    1  A    between atoms: C_3  and  O_4 
REMARK    2  A    between atoms: O_4  and  C_5 
REMARK    3  A    between atoms: C_5  and  C_6 
REMARK    4  A    between atoms: C_6  and  O_7 
ROOT
HETATM    1 CL   LIG     1      16.991  33.569  15.430  1.00  0.00    -0.081 Cl
HETATM    2  C   LIG     1      15.671  32.497  15.873  1.00  0.00     0.069 A 
HETATM    3  C   LIG     1      15.021  32.642  17.109  1.00  0.00     0.091 A 
HETATM    4  C   LIG     1      13.967  31.767  17.438  1.00  0.00     0.040 A 
HETATM    5  C   LIG     1      13.574  30.769  16.541  1.00  0.00     0.026 A 
HETATM    6  C   LIG     1      14.226  30.632  15.313  1.00  0.00     0.035 A 
HETATM    7 CL   LIG     1      13.730  29.379  14.190  1.00  0.00    -0.084 Cl
HETATM    8  C   LIG     1      15.273  31.496  14.980  1.00  0.00     0.050 A 
ENDROOT
BRANCH   3   9
HETATM    9  O   LIG     1      15.447  33.657  17.982  1.00  0.00    -0.339 OA
BRANCH   9  10
HETATM   10  C   LIG     1      15.440  33.557  19.403  1.00  0.00     0.285 C 
BRANCH  10  11
HETATM   11  C   LIG     1      15.666  34.913  19.994  1.00  0.00     0.164 C 
HETATM   12  O   LIG     1      16.775  35.485  19.835  1.00  0.00    -0.648 OA
BRANCH  11  13
HETATM   13  O   LIG     1      14.664  35.552  20.720  1.00  0.00    -0.775 OA
HETATM   14  H   LIG     1      13.758  35.123  20.862  1.00  0.00     0.167 HD
ENDBRANCH  11  13
ENDBRANCH  10  11
ENDBRANCH   9  10
ENDBRANCH   3   9
TORSDOF 4
ENDMDL
MODEL 8
REMARK VINA RESULT:      -5.8      9.002     10.772
REMARK  4 active torsions:
REMARK  status: ('A' for Active; 'I' for Inactive)
REMARK    1  A    between atoms: C_3  and  O_4 
REMARK    2  A    between atoms: O_4  and  C_5 
REMARK    3  A    between atoms: C_5  and  C_6 
REMARK    4  A    between atoms: C_6  and  O_7 
ROOT
HETATM    1 CL   LIG     1      14.356  32.507  17.453  1.00  0.00    -0.081 Cl
HETATM    2  C   LIG     1      14.618  31.570  15.990  1.00  0.00     0.069 A 
HETATM    3  C   LIG     1      15.750  31.799  15.192  1.00  0.00     0.091 A 
HETATM    4  C   LIG     1      15.933  31.032  14.024  1.00  0.00     0.040 A 
HETATM    5  C   LIG     1      14.997  30.056  13.667  1.00  0.00     0.026 A 
HETATM    6  C   LIG     1      13.874  29.835  14.468  1.00  0.00     0.035 A 
HETATM    7 CL   LIG     1      12.702  28.610  14.018  1.00  0.00    -0.084 Cl
HETATM    8  C   LIG     1      13.685  30.592  15.628  1.00  0.00     0.050 A 
ENDROOT
BRANCH   3   9
HETATM    9  O   LIG     1      16.666  32.788  15.584  1.00  0.00    -0.339 OA
BRANCH   9  10
HETATM   10  C   LIG     1      17.788  33.204  14.812  1.00  0.00     0.285 C 
BRANCH  10  11
HETATM   11  C   LIG     1      17.512  34.553  14.225  1.00  0.00     0.164 C 
HETATM   12  O   LIG     1      17.250  35.521  14.986  1.00  0.00    -0.648 OA
BRANCH  11  13
HETATM   13  O   LIG     1      17.541  34.753  12.848  1.00  0.00    -0.775 OA
HETATM   14  H   LIG     1      17.175  34.061  12.205  1.00  0.00     0.167 HD
ENDBRANCH  11  13
ENDBRANCH  10  11
ENDBRANCH   9  10
ENDBRANCH   3   9
TORSDOF 4
ENDMDL
MODEL 9
REMARK VINA RESULT:      -5.4      5.767      7.281
REMARK  4 active torsions:
REMARK  status: ('A' for Active; 'I' for Inactive)
REMARK    1  A    between atoms: C_3  and  O_4 
REMARK    2  A    between atoms: O_4  and  C_5 
REMARK    3  A    between atoms: C_5  and  C_6 
REMARK    4  A    between atoms: C_6  and  O_7 
ROOT
HETATM    1 CL   LIG     1      14.685  31.228  20.544  1.00  0.00    -0.081 Cl
HETATM    2  C   LIG     1      14.617  31.809  18.888  1.00  0.00     0.069 A 
HETATM    3  C   LIG     1      15.226  33.024  18.534  1.00  0.00     0.091 A 
HETATM    4  C   LIG     1      15.153  33.465  17.197  1.00  0.00     0.040 A 
HETATM    5  C   LIG     1      14.483  32.700  16.238  1.00  0.00     0.026 A 
HETATM    6  C   LIG     1      13.879  31.493  16.599  1.00  0.00     0.035 A 
HETATM    7 CL   LIG     1      13.039  30.535  15.393  1.00  0.00    -0.084 Cl
HETATM    8  C   LIG     1      13.947  31.048  17.923  1.00  0.00     0.050 A 
ENDROOT
BRANCH   3   9
HETATM    9  O   LIG     1      15.889  33.762  19.527  1.00  0.00    -0.339 OA
BRANCH   9  10
HETATM   10  C   LIG     1      15.709  35.156  19.754  1.00  0.00     0.285 C 
BRANCH  10  11
HETATM   11  C   LIG     1      15.115  35.364  21.111  1.00  0.00     0.164 C 
HETATM   12  O   LIG     1      15.523  36.312  21.832  1.00  0.00    -0.648 OA
BRANCH  11  13
HETATM   13  O   LIG     1      14.114  34.523  21.590  1.00  0.00    -0.775 OA
HETATM   14  H   LIG     1      13.425  34.847  22.257  1.00  0.00     0.167 HD
ENDBRANCH  11  13
ENDBRANCH  10  11
ENDBRANCH   9  10
ENDBRANCH   3   9
TORSDOF 4
ENDMDL
MODEL 10
REMARK VINA RESULT:      -5.3     10.035     11.713
REMARK  4 active torsions:
REMARK  status: ('A' for Active; 'I' for Inactive)
REMARK    1  A    between atoms: C_3  and  O_4 
REMARK    2  A    between atoms: O_4  and  C_5 
REMARK    3  A    between atoms: C_5  and  C_6 
REMARK    4  A    between atoms: C_6  and  O_7 
ROOT
HETATM    1 CL   LIG     1      16.122  31.728  13.401  1.00  0.00    -0.081 Cl
HETATM    2  C   LIG     1      15.302  31.790  14.953  1.00  0.00     0.069 A 
HETATM    3  C   LIG     1      14.371  30.800  15.307  1.00  0.00     0.091 A 
HETATM    4  C   LIG     1      13.728  30.877  16.559  1.00  0.00     0.040 A 
HETATM    5  C   LIG     1      14.016  31.928  17.435  1.00  0.00     0.026 A 
HETATM    6  C   LIG     1      14.943  32.909  17.075  1.00  0.00     0.035 A 
HETATM    7 CL   LIG     1      15.302  34.226  18.177  1.00  0.00    -0.084 Cl
HETATM    8  C   LIG     1      15.585  32.839  15.835  1.00  0.00     0.050 A 
ENDROOT
BRANCH   3   9
HETATM    9  O   LIG     1      14.111  29.762  14.398  1.00  0.00    -0.339 OA
BRANCH   9  10
HETATM   10  C   LIG     1      12.868  29.075  14.290  1.00  0.00     0.285 C 
BRANCH  10  11
HETATM   11  C   LIG     1      13.098  27.727  13.683  1.00  0.00     0.164 C 
HETATM   12  O   LIG     1      12.129  26.939  13.529  1.00  0.00    -0.648 OA
BRANCH  11  13
HETATM   13  O   LIG     1      14.373  27.330  13.287  1.00  0.00    -0.775 OA
HETATM   14  H   LIG     1      15.128  27.232  13.954  1.00  0.00     0.167 HD
ENDBRANCH  11  13
ENDBRANCH  10  11
ENDBRANCH   9  10
ENDBRANCH   3   9
TORSDOF 4
ENDMDL
MODEL 11
REMARK VINA RESULT:      -5.2      9.447     10.980
REMARK  4 active torsions:
REMARK  status: ('A' for Active; 'I' for Inactive)
REMARK    1  A    between atoms: C_3  and  O_4 
REMARK    2  A    between atoms: O_4  and  C_5 
REMARK    3  A    between atoms: C_5  and  C_6 
REMARK    4  A    between atoms: C_6  and  O_7 
ROOT
HETATM    1 CL   LIG     1      15.580  30.090  13.022  1.00  0.00    -0.081 Cl
HETATM    2  C   LIG     1      15.605  31.283  14.311  1.00  0.00     0.069 A 
HETATM    3  C   LIG     1      16.456  32.397  14.233  1.00  0.00     0.091 A 
HETATM    4  C   LIG     1      16.455  33.337  15.284  1.00  0.00     0.040 A 
HETATM    5  C   LIG     1      15.615  33.160  16.387  1.00  0.00     0.026 A 
HETATM    6  C   LIG     1      14.770  32.049  16.456  1.00  0.00     0.035 A 
HETATM    7 CL   LIG     1      13.717  31.829  17.841  1.00  0.00    -0.084 Cl
HETATM    8  C   LIG     1      14.766  31.112  15.418  1.00  0.00     0.050 A 
ENDROOT
BRANCH   3   9
HETATM    9  O   LIG     1      17.284  32.537  13.109  1.00  0.00    -0.339 OA
BRANCH   9  10
HETATM   10  C   LIG     1      18.340  33.486  12.995  1.00  0.00     0.285 C 
BRANCH  10  11
HETATM   11  C   LIG     1      17.964  34.527  11.989  1.00  0.00     0.164 C 
HETATM   12  O   LIG     1      17.178  35.455  12.316  1.00  0.00    -0.648 OA
BRANCH  11  13
HETATM   13  O   LIG     1      18.471  34.485  10.693  1.00  0.00    -0.775 OA
HETATM   14  H   LIG     1      18.712  35.331  10.191  1.00  0.00     0.167 HD
ENDBRANCH  11  13
ENDBRANCH  10  11
ENDBRANCH   9  10
ENDBRANCH   3   9
TORSDOF 4
ENDMDL
MODEL 12
REMARK VINA RESULT:      -5.2     12.599     14.192
REMARK  4 active torsions:
REMARK  status: ('A' for Active; 'I' for Inactive)
REMARK    1  A    between atoms: C_3  and  O_4 
REMARK    2  A    between atoms: O_4  and  C_5 
REMARK    3  A    between atoms: C_5  and  C_6 
REMARK    4  A    between atoms: C_6  and  O_7 
ROOT
HETATM    1 CL   LIG     1      15.531  27.332  12.905  1.00  0.00    -0.081 Cl
HETATM    2  C   LIG     1      14.744  28.615  13.811  1.00  0.00     0.069 A 
HETATM    3  C   LIG     1      13.402  28.490  14.203  1.00  0.00     0.091 A 
HETATM    4  C   LIG     1      12.798  29.537  14.928  1.00  0.00     0.040 A 
HETATM    5  C   LIG     1      13.529  30.684  15.252  1.00  0.00     0.026 A 
HETATM    6  C   LIG     1      14.864  30.800  14.858  1.00  0.00     0.035 A 
HETATM    7 CL   LIG     1      15.779  32.240  15.266  1.00  0.00    -0.084 Cl
HETATM    8  C   LIG     1      15.470  29.766  14.138  1.00  0.00     0.050 A 
ENDROOT
BRANCH   3   9
HETATM    9  O   LIG     1      12.703  27.322  13.858  1.00  0.00    -0.339 OA
BRANCH   9  10
HETATM   10  C   LIG     1      11.653  27.263  12.898  1.00  0.00     0.285 C 
BRANCH  10  11
HETATM   11  C   LIG     1      11.895  26.113  11.971  1.00  0.00     0.164 C 
HETATM   12  O   LIG     1      11.135  25.110  12.011  1.00  0.00    -0.648 OA
BRANCH  11  13
HETATM   13  O   LIG     1      12.950  26.137  11.063  1.00  0.00    -0.775 OA
HETATM   14  H   LIG     1      13.007  25.473  10.300  1.00  0.00     0.167 HD
ENDBRANCH  11  13
ENDBRANCH  10  11
ENDBRANCH   9  10
ENDBRANCH   3   9
TORSDOF 4
ENDMDL
MODEL 13
REMARK VINA RESULT:      -5.2      7.888      8.951
REMARK  4 active torsions:
REMARK  status: ('A' for Active; 'I' for Inactive)
REMARK    1  A    between atoms: C_3  and  O_4 
REMARK    2  A    between atoms: O_4  and  C_5 
REMARK    3  A    between atoms: C_5  and  C_6 
REMARK    4  A    between atoms: C_6  and  O_7 
ROOT
HETATM    1 CL   LIG     1      15.009  30.455  13.542  1.00  0.00    -0.081 Cl
HETATM    2  C   LIG     1      15.974  31.857  13.976  1.00  0.00     0.069 A 
HETATM    3  C   LIG     1      15.892  32.406  15.266  1.00  0.00     0.091 A 
HETATM    4  C   LIG     1      16.678  33.532  15.585  1.00  0.00     0.040 A 
HETATM    5  C   LIG     1      17.527  34.092  14.626  1.00  0.00     0.026 A 
HETATM    6  C   LIG     1      17.603  33.540  13.345  1.00  0.00     0.035 A 
HETATM    7 CL   LIG     1      18.670  34.245  12.145  1.00  0.00    -0.084 Cl
HETATM    8  C   LIG     1      16.826  32.423  13.021  1.00  0.00     0.050 A 
ENDROOT
BRANCH   3   9
HETATM    9  O   LIG     1      15.026  31.813  16.199  1.00  0.00    -0.339 OA
BRANCH   9  10
HETATM   10  C   LIG     1      14.219  32.534  17.125  1.00  0.00     0.285 C 
BRANCH  10  11
HETATM   11  C   LIG     1      14.738  32.312  18.511  1.00  0.00     0.164 C 
HETATM   12  O   LIG     1      15.639  33.063  18.967  1.00  0.00    -0.648 OA
BRANCH  11  13
HETATM   13  O   LIG     1      14.238  31.283  19.305  1.00  0.00    -0.775 OA
HETATM   14  H   LIG     1      13.460  31.432  19.936  1.00  0.00     0.167 HD
ENDBRANCH  11  13
ENDBRANCH  10  11
ENDBRANCH   9  10
ENDBRANCH   3   9
TORSDOF 4
ENDMDL
MODEL 14
REMARK VINA RESULT:      -5.2      8.754     10.335
REMARK  4 active torsions:
REMARK  status: ('A' for Active; 'I' for Inactive)
REMARK    1  A    between atoms: C_3  and  O_4 
REMARK    2  A    between atoms: O_4  and  C_5 
REMARK    3  A    between atoms: C_5  and  C_6 
REMARK    4  A    between atoms: C_6  and  O_7 
ROOT
HETATM    1 CL   LIG     1      16.791  32.184  14.976  1.00  0.00    -0.081 Cl
HETATM    2  C   LIG     1      15.478  31.024  14.850  1.00  0.00     0.069 A 
HETATM    3  C   LIG     1      14.252  31.263  15.490  1.00  0.00     0.091 A 
HETATM    4  C   LIG     1      13.218  30.313  15.372  1.00  0.00     0.040 A 
HETATM    5  C   LIG     1      13.414  29.147  14.626  1.00  0.00     0.026 A 
HETATM    6  C   LIG     1      14.638  28.917  13.992  1.00  0.00     0.035 A 
HETATM    7 CL   LIG     1      14.880  27.453  13.056  1.00  0.00    -0.084 Cl
HETATM    8  C   LIG     1      15.668  29.854  14.104  1.00  0.00     0.050 A 
ENDROOT
BRANCH   3   9
HETATM    9  O   LIG     1      14.096  32.446  16.231  1.00  0.00    -0.339 OA
BRANCH   9  10
HETATM   10  C   LIG     1      14.665  32.676  17.516  1.00  0.00     0.285 C 
BRANCH  10  11
HETATM   11  C   LIG     1      15.171  34.083  17.589  1.00  0.00     0.164 C 
HETATM   12  O   LIG     1      15.322  34.745  16.529  1.00  0.00    -0.648 OA
BRANCH  11  13
HETATM   13  O   LIG     1      15.477  34.670  18.813  1.00  0.00    -0.775 OA
HETATM   14  H   LIG     1      14.848  34.604  19.604  1.00  0.00     0.167 HD
ENDBRANCH  11  13
ENDBRANCH  10  11
ENDBRANCH   9  10
ENDBRANCH   3   9
TORSDOF 4
ENDMDL
MODEL 15
REMARK VINA RESULT:      -5.1      7.075      8.260
REMARK  4 active torsions:
REMARK  status: ('A' for Active; 'I' for Inactive)
REMARK    1  A    between atoms: C_3  and  O_4 
REMARK    2  A    between atoms: O_4  and  C_5 
REMARK    3  A    between atoms: C_5  and  C_6 
REMARK    4  A    between atoms: C_6  and  O_7 
ROOT
HETATM    1 CL   LIG     1      12.603  30.204  16.705  1.00  0.00    -0.081 Cl
HETATM    2  C   LIG     1      14.019  31.163  16.302  1.00  0.00     0.069 A 
HETATM    3  C   LIG     1      14.654  31.942  17.282  1.00  0.00     0.091 A 
HETATM    4  C   LIG     1      15.787  32.702  16.928  1.00  0.00     0.040 A 
HETATM    5  C   LIG     1      16.270  32.678  15.617  1.00  0.00     0.026 A 
HETATM    6  C   LIG     1      15.632  31.901  14.647  1.00  0.00     0.035 A 
HETATM    7 CL   LIG     1      16.241  31.873  13.002  1.00  0.00    -0.084 Cl
HETATM    8  C   LIG     1      14.507  31.144  14.990  1.00  0.00     0.050 A 
ENDROOT
BRANCH   3   9
HETATM    9  O   LIG     1      14.137  31.938  18.588  1.00  0.00    -0.339 OA
BRANCH   9  10
HETATM   10  C   LIG     1      14.920  31.780  19.767  1.00  0.00     0.285 C 
BRANCH  10  11
HETATM   11  C   LIG     1      15.049  33.102  20.456  1.00  0.00     0.164 C 
HETATM   12  O   LIG     1      16.000  33.870  20.156  1.00  0.00    -0.648 OA
BRANCH  11  13
HETATM   13  O   LIG     1      14.130  33.495  21.426  1.00  0.00    -0.775 OA
HETATM   14  H   LIG     1      13.235  33.897  21.175  1.00  0.00     0.167 HD
ENDBRANCH  11  13
ENDBRANCH  10  11
ENDBRANCH   9  10
ENDBRANCH   3   9
TORSDOF 4
ENDMDL
MODEL 16
REMARK VINA RESULT:      -5.0      3.265      5.403
REMARK  4 active torsions:
REMARK  status: ('A' for Active; 'I' for Inactive)
REMARK    1  A    between atoms: C_3  and  O_4 
REMARK    2  A    between atoms: O_4  and  C_5 
REMARK    3  A    between atoms: C_5  and  C_6 
REMARK    4  A    between atoms: C_6  and  O_7 
ROOT
HETATM    1 CL   LIG     1      17.622  39.592  22.958  1.00  0.00    -0.081 Cl
HETATM    2  C   LIG     1      17.471  37.852  22.770  1.00  0.00     0.069 A 
HETATM    3  C   LIG     1      17.607  37.259  21.505  1.00  0.00     0.091 A 
HETATM    4  C   LIG     1      17.479  35.860  21.385  1.00  0.00     0.040 A 
HETATM    5  C   LIG     1      17.221  35.077  22.513  1.00  0.00     0.026 A 
HETATM    6  C   LIG     1      17.088  35.676  23.769  1.00  0.00     0.035 A 
HETATM    7 CL   LIG     1      16.764  34.690  25.183  1.00  0.00    -0.084 Cl
HETATM    8  C   LIG     1      17.213  37.062  23.896  1.00  0.00     0.050 A 
ENDROOT
BRANCH   3   9
HETATM    9  O   LIG     1      17.865  38.081  20.396  1.00  0.00    -0.339 OA
BRANCH   9  10
HETATM   10  C   LIG     1      18.742  39.204  20.409  1.00  0.00     0.285 C 
BRANCH  10  11
HETATM   11  C   LIG     1      19.414  39.322  19.078  1.00  0.00     0.164 C 
HETATM   12  O   LIG     1      18.717  39.358  18.030  1.00  0.00    -0.648 OA
BRANCH  11  13
HETATM   13  O   LIG     1      20.801  39.392  18.980  1.00  0.00    -0.775 OA
HETATM   14  H   LIG     1      21.401  38.791  19.531  1.00  0.00     0.167 HD
ENDBRANCH  11  13
ENDBRANCH  10  11
ENDBRANCH   9  10
ENDBRANCH   3   9
TORSDOF 4
ENDMDL
MODEL 17
REMARK VINA RESULT:      -4.7      8.470     10.152
REMARK  4 active torsions:
REMARK  status: ('A' for Active; 'I' for Inactive)
REMARK    1  A    between atoms: C_3  and  O_4 
REMARK    2  A    between atoms: O_4  and  C_5 
REMARK    3  A    between atoms: C_5  and  C_6 
REMARK    4  A    between atoms: C_6  and  O_7 
ROOT
HETATM    1 CL   LIG     1      13.498  30.297  15.173  1.00  0.00    -0.081 Cl
HETATM    2  C   LIG     1      14.266  31.364  16.339  1.00  0.00     0.069 A 
HETATM    3  C   LIG     1      15.079  32.423  15.906  1.00  0.00     0.091 A 
HETATM    4  C   LIG     1      15.682  33.262  16.865  1.00  0.00     0.040 A 
HETATM    5  C   LIG     1      15.471  33.039  18.229  1.00  0.00     0.026 A 
HETATM    6  C   LIG     1      14.660  31.983  18.651  1.00  0.00     0.035 A 
HETATM    7 CL   LIG     1      14.396  31.706  20.363  1.00  0.00    -0.084 Cl
HETATM    8  C   LIG     1      14.058  31.146  17.706  1.00  0.00     0.050 A 
ENDROOT
BRANCH   3   9
HETATM    9  O   LIG     1      15.266  32.612  14.528  1.00  0.00    -0.339 OA
BRANCH   9  10
HETATM   10  C   LIG     1      16.293  31.993  13.758  1.00  0.00     0.285 C 
BRANCH  10  11
HETATM   11  C   LIG     1      17.240  33.040  13.263  1.00  0.00     0.164 C 
HETATM   12  O   LIG     1      17.228  34.186  13.783  1.00  0.00    -0.648 OA
BRANCH  11  13
HETATM   13  O   LIG     1      18.136  32.764  12.234  1.00  0.00    -0.775 OA
HETATM   14  H   LIG     1      18.982  32.232  12.397  1.00  0.00     0.167 HD
ENDBRANCH  11  13
ENDBRANCH  10  11
ENDBRANCH   9  10
ENDBRANCH   3   9
TORSDOF 4
ENDMDL
