REMARK  6 active torsions:
REMARK  status: ('A' for Active; 'I' for Inactive)
REMARK    1  A    between atoms: C_3  and  O_9 
REMARK    2  A    between atoms: O_9  and  C_10 
REMARK    3  A    between atoms: C_10  and  C_11 
REMARK    4  A    between atoms: C_11  and  C_12 
REMARK    5  A    between atoms: C_12  and  C_13 
REMARK    6  A    between atoms: C_13  and  O_14 
ROOT
HETATM    1 CL   LIG     1      -2.489  -1.222  -2.724  1.00  0.00    -0.081 Cl
HETATM    2  C   LIG     1      -2.680  -0.235  -1.283  1.00  0.00     0.069 A 
HETATM    3  C   LIG     1      -1.565   0.105  -0.499  1.00  0.00     0.090 A 
HETATM    4  C   LIG     1      -1.750   0.898   0.651  1.00  0.00     0.040 A 
HETATM    5  C   LIG     1      -3.029   1.339   1.005  1.00  0.00     0.026 A 
HETATM    6  C   LIG     1      -4.132   0.996   0.220  1.00  0.00     0.035 A 
HETATM    7 CL   LIG     1      -5.735   1.551   0.668  1.00  0.00    -0.084 Cl
HETATM    8  C   LIG     1      -3.958   0.210  -0.922  1.00  0.00     0.050 A 
ENDROOT
BRANCH   3   9
HETATM    9  O   LIG     1      -0.299  -0.358  -0.890  1.00  0.00    -0.349 OA
BRANCH   9  10
HETATM   10  C   LIG     1       0.912  -0.089  -0.189  1.00  0.00     0.176 C 
BRANCH  10  11
HETATM   11  C   LIG     1       2.078  -0.760  -0.917  1.00  0.00     0.037 C 
BRANCH  11  12
HETATM   12  C   LIG     1       3.427  -0.463  -0.249  1.00  0.00     0.112 C 
BRANCH  12  13
HETATM   13  C   LIG     1       3.535  -1.104   1.106  1.00  0.00     0.139 C 
HETATM   14  O   LIG     1       3.531  -2.359   1.208  1.00  0.00    -0.650 OA
BRANCH  13  15
HETATM   15  O   LIG     1       3.647  -0.326   2.255  1.00  0.00    -0.776 OA
HETATM   16  H   LIG     1       3.647   0.685   2.209  1.00  0.00     0.167 HD
ENDBRANCH  13  15
ENDBRANCH  12  13
ENDBRANCH  11  12
ENDBRANCH  10  11
ENDBRANCH   9  10
ENDBRANCH   3   9
TORSDOF 6
