REMARK  7 active torsions:
REMARK  status: ('A' for Active; 'I' for Inactive)
REMARK    1  A    between atoms: C_2  and  C_3 
REMARK    2  A    between atoms: C_3  and  C_4 
REMARK    3  A    between atoms: C_4  and  C_6 
REMARK    4  A    between atoms: C_4  and  O_5 
REMARK    5  A    between atoms: C_6  and  C_7 
REMARK    6  A    between atoms: C_6  and  C_9 
REMARK    7  A    between atoms: C_9  and  O_10 
ROOT
HETATM    1  C   LIG     1       0.265  -1.097  -0.003  1.00  0.00     0.124 C 
ENDROOT
BRANCH   1   2
HETATM    2  C   LIG     1       1.571  -0.513  -0.617  1.00  0.00     0.032 C 
BRANCH   2   3
HETATM    3  C   LIG     1       2.557   0.079   0.406  1.00  0.00    -0.002 C 
HETATM    4  C   LIG     1       3.770   0.691  -0.289  1.00  0.00     0.005 C 
ENDBRANCH   2   3
ENDBRANCH   1   2
BRANCH   1   5
HETATM    5  C   LIG     1      -1.008  -0.222  -0.240  1.00  0.00     0.038 C 
BRANCH   5   6
HETATM    6  C   LIG     1      -2.264  -0.989   0.256  1.00  0.00     0.004 C 
HETATM    7  C   LIG     1      -3.584  -0.384  -0.223  1.00  0.00     0.005 C 
ENDBRANCH   5   6
BRANCH   5   8
HETATM    8  C   LIG     1      -0.905   1.185   0.396  1.00  0.00     0.171 C 
BRANCH   8   9
HETATM    9  O   LIG     1      -1.858   2.044  -0.168  1.00  0.00    -0.400 OA
HETATM   10  H   LIG     1      -1.771   2.908   0.312  1.00  0.00     0.209 HD
ENDBRANCH   8   9
ENDBRANCH   5   8
ENDBRANCH   1   5
BRANCH   1  11
HETATM   11  O   LIG     1       0.420  -1.469   1.346  1.00  0.00    -0.395 OA
HETATM   12  H   LIG     1       0.423  -0.645   1.895  1.00  0.00     0.210 HD
ENDBRANCH   1  11
TORSDOF 7
