REMARK  6 active torsions:
REMARK  status: ('A' for Active; 'I' for Inactive)
REMARK    1  A    between atoms: C_2  and  N_8 
REMARK    2  A    between atoms: C_2  and  S_3 
REMARK    3  A    between atoms: S_3  and  C_4 
REMARK    4  A    between atoms: C_4  and  C_5 
REMARK    5  A    between atoms: N_8  and  C_9 
REMARK    6  A    between atoms: N_8  and  C_11 
ROOT
HETATM    1  S   LIG     1       0.198  -1.246  -2.809  1.00  0.00    -0.053 SA
HETATM    2  C   LIG     1      -0.088  -0.946  -1.222  1.00  0.00     0.137 C 
ENDROOT
BRANCH   2   3
HETATM    3  N   LIG     1      -1.156  -0.063  -0.800  1.00  0.00    -0.367 N 
BRANCH   3   4
HETATM    4  C   LIG     1      -1.657   0.994  -1.695  1.00  0.00     0.120 C 
HETATM    5  C   LIG     1      -0.640   2.124  -1.808  1.00  0.00     0.026 C 
ENDBRANCH   3   4
BRANCH   3   6
HETATM    6  C   LIG     1      -1.721  -0.179   0.553  1.00  0.00     0.120 C 
HETATM    7  C   LIG     1      -2.586  -1.429   0.667  1.00  0.00     0.026 C 
ENDBRANCH   3   6
ENDBRANCH   2   3
BRANCH   2   8
HETATM    8  S   LIG     1       0.970  -1.762  -0.020  1.00  0.00    -0.095 SA
BRANCH   8   9
HETATM    9  C   LIG     1       2.124  -0.356   0.087  1.00  0.00     0.132 C 
BRANCH   9  10
HETATM   10  C   LIG     1       3.218  -0.672   1.067  1.00  0.00     0.012 C 
HETATM   11  C   LIG     1       3.351   0.012   2.209  1.00  0.00     0.033 C 
HETATM   12 CL   LIG     1       4.363  -1.955   0.694  1.00  0.00    -0.089 Cl
ENDBRANCH   9  10
ENDBRANCH   8   9
ENDBRANCH   2   8
TORSDOF 6
