MODEL 1
REMARK VINA RESULT:      -5.3      0.000      0.000
REMARK  6 active torsions:
REMARK  status: ('A' for Active; 'I' for Inactive)
REMARK    1  A    between atoms: C_2  and  N_8 
REMARK    2  A    between atoms: C_2  and  S_3 
REMARK    3  A    between atoms: S_3  and  C_4 
REMARK    4  A    between atoms: C_4  and  C_5 
REMARK    5  A    between atoms: N_8  and  C_9 
REMARK    6  A    between atoms: N_8  and  C_11 
ROOT
HETATM    1  S   LIG     1      18.383  39.161  22.026  1.00  0.00    -0.053 SA
HETATM    2  C   LIG     1      17.471  37.799  21.991  1.00  0.00     0.137 C 
ENDROOT
BRANCH   2   3
HETATM    3  N   LIG     1      17.632  36.808  20.946  1.00  0.00    -0.367 N 
BRANCH   3   4
HETATM    4  C   LIG     1      18.259  37.162  19.662  1.00  0.00     0.120 C 
HETATM    5  C   LIG     1      19.674  36.599  19.586  1.00  0.00     0.026 C 
ENDBRANCH   3   4
BRANCH   3   6
HETATM    6  C   LIG     1      17.122  35.441  21.138  1.00  0.00     0.120 C 
HETATM    7  C   LIG     1      15.897  35.199  20.263  1.00  0.00     0.026 C 
ENDBRANCH   3   6
ENDBRANCH   2   3
BRANCH   2   8
HETATM    8  S   LIG     1      16.265  37.574  23.304  1.00  0.00    -0.095 SA
BRANCH   8   9
HETATM    9  C   LIG     1      17.475  37.904  24.626  1.00  0.00     0.132 C 
BRANCH   9  10
HETATM   10  C   LIG     1      17.783  36.630  25.360  1.00  0.00     0.012 C 
HETATM   11  C   LIG     1      18.447  36.637  26.522  1.00  0.00     0.033 C 
HETATM   12 CL   LIG     1      17.279  35.093  24.666  1.00  0.00    -0.089 Cl
ENDBRANCH   9  10
ENDBRANCH   8   9
ENDBRANCH   2   8
TORSDOF 6
ENDMDL
MODEL 2
REMARK VINA RESULT:      -5.3      0.067      1.959
REMARK  6 active torsions:
REMARK  status: ('A' for Active; 'I' for Inactive)
REMARK    1  A    between atoms: C_2  and  N_8 
REMARK    2  A    between atoms: C_2  and  S_3 
REMARK    3  A    between atoms: S_3  and  C_4 
REMARK    4  A    between atoms: C_4  and  C_5 
REMARK    5  A    between atoms: N_8  and  C_9 
REMARK    6  A    between atoms: N_8  and  C_11 
ROOT
HETATM    1  S   LIG     1      18.258  39.211  22.042  1.00  0.00    -0.053 SA
HETATM    2  C   LIG     1      17.404  37.812  21.989  1.00  0.00     0.137 C 
ENDROOT
BRANCH   2   3
HETATM    3  N   LIG     1      17.605  36.843  20.931  1.00  0.00    -0.367 N 
BRANCH   3   4
HETATM    4  C   LIG     1      17.183  35.442  21.102  1.00  0.00     0.120 C 
HETATM    5  C   LIG     1      15.933  35.157  20.277  1.00  0.00     0.026 C 
ENDBRANCH   3   4
BRANCH   3   6
HETATM    6  C   LIG     1      18.282  37.237  19.686  1.00  0.00     0.120 C 
HETATM    7  C   LIG     1      19.663  36.596  19.602  1.00  0.00     0.026 C 
ENDBRANCH   3   6
ENDBRANCH   2   3
BRANCH   2   8
HETATM    8  S   LIG     1      16.211  37.518  23.300  1.00  0.00    -0.095 SA
BRANCH   8   9
HETATM    9  C   LIG     1      17.408  37.881  24.625  1.00  0.00     0.132 C 
BRANCH   9  10
HETATM   10  C   LIG     1      17.755  36.614  25.355  1.00  0.00     0.012 C 
HETATM   11  C   LIG     1      18.446  36.636  26.500  1.00  0.00     0.033 C 
HETATM   12 CL   LIG     1      17.261  35.068  24.677  1.00  0.00    -0.089 Cl
ENDBRANCH   9  10
ENDBRANCH   8   9
ENDBRANCH   2   8
TORSDOF 6
ENDMDL
MODEL 3
REMARK VINA RESULT:      -5.0      2.600      4.904
REMARK  6 active torsions:
REMARK  status: ('A' for Active; 'I' for Inactive)
REMARK    1  A    between atoms: C_2  and  N_8 
REMARK    2  A    between atoms: C_2  and  S_3 
REMARK    3  A    between atoms: S_3  and  C_4 
REMARK    4  A    between atoms: C_4  and  C_5 
REMARK    5  A    between atoms: N_8  and  C_9 
REMARK    6  A    between atoms: N_8  and  C_11 
ROOT
HETATM    1  S   LIG     1      15.708  38.054  22.741  1.00  0.00    -0.053 SA
HETATM    2  C   LIG     1      17.161  37.810  23.463  1.00  0.00     0.137 C 
ENDROOT
BRANCH   2   3
HETATM    3  N   LIG     1      17.315  36.866  24.551  1.00  0.00    -0.367 N 
BRANCH   3   4
HETATM    4  C   LIG     1      17.129  35.422  24.327  1.00  0.00     0.120 C 
HETATM    5  C   LIG     1      17.118  35.110  22.835  1.00  0.00     0.026 C 
ENDBRANCH   3   4
BRANCH   3   6
HETATM    6  C   LIG     1      17.610  37.346  25.910  1.00  0.00     0.120 C 
HETATM    7  C   LIG     1      18.467  36.333  26.660  1.00  0.00     0.026 C 
ENDBRANCH   3   6
ENDBRANCH   2   3
BRANCH   2   8
HETATM    8  S   LIG     1      18.562  38.752  22.847  1.00  0.00    -0.095 SA
BRANCH   8   9
HETATM    9  C   LIG     1      17.917  38.812  21.143  1.00  0.00     0.132 C 
BRANCH   9  10
HETATM   10  C   LIG     1      18.862  38.096  20.219  1.00  0.00     0.012 C 
HETATM   11  C   LIG     1      18.658  36.823  19.862  1.00  0.00     0.033 C 
HETATM   12 CL   LIG     1      20.278  38.945  19.611  1.00  0.00    -0.089 Cl
ENDBRANCH   9  10
ENDBRANCH   8   9
ENDBRANCH   2   8
TORSDOF 6
ENDMDL
MODEL 4
REMARK VINA RESULT:      -5.0      2.546      4.739
REMARK  6 active torsions:
REMARK  status: ('A' for Active; 'I' for Inactive)
REMARK    1  A    between atoms: C_2  and  N_8 
REMARK    2  A    between atoms: C_2  and  S_3 
REMARK    3  A    between atoms: S_3  and  C_4 
REMARK    4  A    between atoms: C_4  and  C_5 
REMARK    5  A    between atoms: N_8  and  C_9 
REMARK    6  A    between atoms: N_8  and  C_11 
ROOT
HETATM    1  S   LIG     1      15.706  38.013  22.858  1.00  0.00    -0.053 SA
HETATM    2  C   LIG     1      17.193  37.686  23.466  1.00  0.00     0.137 C 
ENDROOT
BRANCH   2   3
HETATM    3  N   LIG     1      17.402  36.614  24.418  1.00  0.00    -0.367 N 
BRANCH   3   4
HETATM    4  C   LIG     1      18.018  36.880  25.729  1.00  0.00     0.120 C 
HETATM    5  C   LIG     1      18.261  35.576  26.479  1.00  0.00     0.026 C 
ENDBRANCH   3   4
BRANCH   3   6
HETATM    6  C   LIG     1      17.045  35.231  24.065  1.00  0.00     0.120 C 
HETATM    7  C   LIG     1      17.143  35.020  22.559  1.00  0.00     0.026 C 
ENDBRANCH   3   6
ENDBRANCH   2   3
BRANCH   2   8
HETATM    8  S   LIG     1      18.563  38.702  22.900  1.00  0.00    -0.095 SA
BRANCH   8   9
HETATM    9  C   LIG     1      17.919  38.823  21.200  1.00  0.00     0.132 C 
BRANCH   9  10
HETATM   10  C   LIG     1      18.863  38.141  20.251  1.00  0.00     0.012 C 
HETATM   11  C   LIG     1      18.645  36.891  19.826  1.00  0.00     0.033 C 
HETATM   12 CL   LIG     1      20.300  38.997  19.704  1.00  0.00    -0.089 Cl
ENDBRANCH   9  10
ENDBRANCH   8   9
ENDBRANCH   2   8
TORSDOF 6
ENDMDL
MODEL 5
REMARK VINA RESULT:      -4.9      1.619      2.611
REMARK  6 active torsions:
REMARK  status: ('A' for Active; 'I' for Inactive)
REMARK    1  A    between atoms: C_2  and  N_8 
REMARK    2  A    between atoms: C_2  and  S_3 
REMARK    3  A    between atoms: S_3  and  C_4 
REMARK    4  A    between atoms: C_4  and  C_5 
REMARK    5  A    between atoms: N_8  and  C_9 
REMARK    6  A    between atoms: N_8  and  C_11 
ROOT
HETATM    1  S   LIG     1      16.418  35.355  20.886  1.00  0.00    -0.053 SA
HETATM    2  C   LIG     1      16.963  36.729  21.595  1.00  0.00     0.137 C 
ENDROOT
BRANCH   2   3
HETATM    3  N   LIG     1      17.926  37.589  20.937  1.00  0.00    -0.367 N 
BRANCH   3   4
HETATM    4  C   LIG     1      18.035  39.013  21.298  1.00  0.00     0.120 C 
HETATM    5  C   LIG     1      19.168  39.225  22.296  1.00  0.00     0.026 C 
ENDBRANCH   3   4
BRANCH   3   6
HETATM    6  C   LIG     1      18.776  37.059  19.860  1.00  0.00     0.120 C 
HETATM    7  C   LIG     1      19.014  38.122  18.793  1.00  0.00     0.026 C 
ENDBRANCH   3   6
ENDBRANCH   2   3
BRANCH   2   8
HETATM    8  S   LIG     1      16.315  37.137  23.221  1.00  0.00    -0.095 SA
BRANCH   8   9
HETATM    9  C   LIG     1      17.068  35.679  24.012  1.00  0.00     0.132 C 
BRANCH   9  10
HETATM   10  C   LIG     1      17.663  36.070  25.334  1.00  0.00     0.012 C 
HETATM   11  C   LIG     1      17.694  37.346  25.735  1.00  0.00     0.033 C 
HETATM   12 CL   LIG     1      18.356  34.826  26.368  1.00  0.00    -0.089 Cl
ENDBRANCH   9  10
ENDBRANCH   8   9
ENDBRANCH   2   8
TORSDOF 6
ENDMDL
MODEL 6
REMARK VINA RESULT:      -4.8      2.840      5.075
REMARK  6 active torsions:
REMARK  status: ('A' for Active; 'I' for Inactive)
REMARK    1  A    between atoms: C_2  and  N_8 
REMARK    2  A    between atoms: C_2  and  S_3 
REMARK    3  A    between atoms: S_3  and  C_4 
REMARK    4  A    between atoms: C_4  and  C_5 
REMARK    5  A    between atoms: N_8  and  C_9 
REMARK    6  A    between atoms: N_8  and  C_11 
ROOT
HETATM    1  S   LIG     1      16.496  34.988  22.225  1.00  0.00    -0.053 SA
HETATM    2  C   LIG     1      16.979  36.313  23.063  1.00  0.00     0.137 C 
ENDROOT
BRANCH   2   3
HETATM    3  N   LIG     1      17.457  36.212  24.426  1.00  0.00    -0.367 N 
BRANCH   3   4
HETATM    4  C   LIG     1      18.188  37.327  25.052  1.00  0.00     0.120 C 
HETATM    5  C   LIG     1      17.217  38.302  25.707  1.00  0.00     0.026 C 
ENDBRANCH   3   4
BRANCH   3   6
HETATM    6  C   LIG     1      17.261  34.970  25.189  1.00  0.00     0.120 C 
HETATM    7  C   LIG     1      18.296  34.856  26.303  1.00  0.00     0.026 C 
ENDBRANCH   3   6
ENDBRANCH   2   3
BRANCH   2   8
HETATM    8  S   LIG     1      16.902  37.899  22.222  1.00  0.00    -0.095 SA
BRANCH   8   9
HETATM    9  C   LIG     1      17.904  37.327  20.811  1.00  0.00     0.132 C 
BRANCH   9  10
HETATM   10  C   LIG     1      18.717  38.469  20.271  1.00  0.00     0.012 C 
HETATM   11  C   LIG     1      19.162  39.447  21.068  1.00  0.00     0.033 C 
HETATM   12 CL   LIG     1      19.074  38.533  18.549  1.00  0.00    -0.089 Cl
ENDBRANCH   9  10
ENDBRANCH   8   9
ENDBRANCH   2   8
TORSDOF 6
ENDMDL
MODEL 7
REMARK VINA RESULT:      -4.8      2.356      5.010
REMARK  6 active torsions:
REMARK  status: ('A' for Active; 'I' for Inactive)
REMARK    1  A    between atoms: C_2  and  N_8 
REMARK    2  A    between atoms: C_2  and  S_3 
REMARK    3  A    between atoms: S_3  and  C_4 
REMARK    4  A    between atoms: C_4  and  C_5 
REMARK    5  A    between atoms: N_8  and  C_9 
REMARK    6  A    between atoms: N_8  and  C_11 
ROOT
HETATM    1  S   LIG     1      15.562  37.471  22.695  1.00  0.00    -0.053 SA
HETATM    2  C   LIG     1      16.670  36.333  23.102  1.00  0.00     0.137 C 
ENDROOT
BRANCH   2   3
HETATM    3  N   LIG     1      17.157  36.203  24.460  1.00  0.00    -0.367 N 
BRANCH   3   4
HETATM    4  C   LIG     1      17.332  34.875  25.074  1.00  0.00     0.120 C 
HETATM    5  C   LIG     1      18.215  34.972  26.312  1.00  0.00     0.026 C 
ENDBRANCH   3   4
BRANCH   3   6
HETATM    6  C   LIG     1      17.434  37.402  25.265  1.00  0.00     0.120 C 
HETATM    7  C   LIG     1      18.550  38.226  24.631  1.00  0.00     0.026 C 
ENDBRANCH   3   6
ENDBRANCH   2   3
BRANCH   2   8
HETATM    8  S   LIG     1      17.255  35.241  21.799  1.00  0.00    -0.095 SA
BRANCH   8   9
HETATM    9  C   LIG     1      17.082  36.510  20.503  1.00  0.00     0.132 C 
BRANCH   9  10
HETATM   10  C   LIG     1      18.391  37.222  20.312  1.00  0.00     0.012 C 
HETATM   11  C   LIG     1      19.367  36.699  19.561  1.00  0.00     0.033 C 
HETATM   12 CL   LIG     1      18.655  38.767  21.112  1.00  0.00    -0.089 Cl
ENDBRANCH   9  10
ENDBRANCH   8   9
ENDBRANCH   2   8
TORSDOF 6
ENDMDL
MODEL 8
REMARK VINA RESULT:      -4.5      2.912      5.067
REMARK  6 active torsions:
REMARK  status: ('A' for Active; 'I' for Inactive)
REMARK    1  A    between atoms: C_2  and  N_8 
REMARK    2  A    between atoms: C_2  and  S_3 
REMARK    3  A    between atoms: S_3  and  C_4 
REMARK    4  A    between atoms: C_4  and  C_5 
REMARK    5  A    between atoms: N_8  and  C_9 
REMARK    6  A    between atoms: N_8  and  C_11 
ROOT
HETATM    1  S   LIG     1      15.467  37.674  22.913  1.00  0.00    -0.053 SA
HETATM    2  C   LIG     1      16.663  36.574  23.135  1.00  0.00     0.137 C 
ENDROOT
BRANCH   2   3
HETATM    3  N   LIG     1      17.229  36.328  24.446  1.00  0.00    -0.367 N 
BRANCH   3   4
HETATM    4  C   LIG     1      17.770  37.435  25.252  1.00  0.00     0.120 C 
HETATM    5  C   LIG     1      18.665  38.328  24.401  1.00  0.00     0.026 C 
ENDBRANCH   3   4
BRANCH   3   6
HETATM    6  C   LIG     1      17.317  34.955  24.967  1.00  0.00     0.120 C 
HETATM    7  C   LIG     1      18.125  34.925  26.260  1.00  0.00     0.026 C 
ENDBRANCH   3   6
ENDBRANCH   2   3
BRANCH   2   8
HETATM    8  S   LIG     1      17.242  35.675  21.691  1.00  0.00    -0.095 SA
BRANCH   8   9
HETATM    9  C   LIG     1      15.774  34.598  21.633  1.00  0.00     0.132 C 
BRANCH   9  10
HETATM   10  C   LIG     1      15.589  34.067  20.239  1.00  0.00     0.012 C 
HETATM   11  C   LIG     1      15.619  34.877  19.175  1.00  0.00     0.033 C 
HETATM   12 CL   LIG     1      15.305  32.347  20.004  1.00  0.00    -0.089 Cl
ENDBRANCH   9  10
ENDBRANCH   8   9
ENDBRANCH   2   8
TORSDOF 6
ENDMDL
MODEL 9
REMARK VINA RESULT:      -4.5      3.252      5.063
REMARK  6 active torsions:
REMARK  status: ('A' for Active; 'I' for Inactive)
REMARK    1  A    between atoms: C_2  and  N_8 
REMARK    2  A    between atoms: C_2  and  S_3 
REMARK    3  A    between atoms: S_3  and  C_4 
REMARK    4  A    between atoms: C_4  and  C_5 
REMARK    5  A    between atoms: N_8  and  C_9 
REMARK    6  A    between atoms: N_8  and  C_11 
ROOT
HETATM    1  S   LIG     1      16.846  35.156  22.520  1.00  0.00    -0.053 SA
HETATM    2  C   LIG     1      16.898  35.942  21.082  1.00  0.00     0.137 C 
ENDROOT
BRANCH   2   3
HETATM    3  N   LIG     1      17.652  37.168  20.918  1.00  0.00    -0.367 N 
BRANCH   3   4
HETATM    4  C   LIG     1      18.405  37.429  19.679  1.00  0.00     0.120 C 
HETATM    5  C   LIG     1      19.638  36.536  19.606  1.00  0.00     0.026 C 
ENDBRANCH   3   4
BRANCH   3   6
HETATM    6  C   LIG     1      17.717  38.149  22.012  1.00  0.00     0.120 C 
HETATM    7  C   LIG     1      18.489  39.389  21.575  1.00  0.00     0.026 C 
ENDBRANCH   3   6
ENDBRANCH   2   3
BRANCH   2   8
HETATM    8  S   LIG     1      15.990  35.222  19.709  1.00  0.00    -0.095 SA
BRANCH   8   9
HETATM    9  C   LIG     1      15.702  33.647  20.579  1.00  0.00     0.132 C 
BRANCH   9  10
HETATM   10  C   LIG     1      15.221  32.610  19.604  1.00  0.00     0.012 C 
HETATM   11  C   LIG     1      14.906  31.372  20.000  1.00  0.00     0.033 C 
HETATM   12 CL   LIG     1      15.092  33.026  17.899  1.00  0.00    -0.089 Cl
ENDBRANCH   9  10
ENDBRANCH   8   9
ENDBRANCH   2   8
TORSDOF 6
ENDMDL
MODEL 10
REMARK VINA RESULT:      -4.3      3.048      5.189
REMARK  6 active torsions:
REMARK  status: ('A' for Active; 'I' for Inactive)
REMARK    1  A    between atoms: C_2  and  N_8 
REMARK    2  A    between atoms: C_2  and  S_3 
REMARK    3  A    between atoms: S_3  and  C_4 
REMARK    4  A    between atoms: C_4  and  C_5 
REMARK    5  A    between atoms: N_8  and  C_9 
REMARK    6  A    between atoms: N_8  and  C_11 
ROOT
HETATM    1  S   LIG     1      16.994  34.975  22.580  1.00  0.00    -0.053 SA
HETATM    2  C   LIG     1      16.941  35.889  21.219  1.00  0.00     0.137 C 
ENDROOT
BRANCH   2   3
HETATM    3  N   LIG     1      17.634  37.158  21.134  1.00  0.00    -0.367 N 
BRANCH   3   4
HETATM    4  C   LIG     1      17.645  38.089  22.275  1.00  0.00     0.120 C 
HETATM    5  C   LIG     1      16.269  38.715  22.467  1.00  0.00     0.026 C 
ENDBRANCH   3   4
BRANCH   3   6
HETATM    6  C   LIG     1      18.296  37.557  19.882  1.00  0.00     0.120 C 
HETATM    7  C   LIG     1      19.523  36.690  19.625  1.00  0.00     0.026 C 
ENDBRANCH   3   6
ENDBRANCH   2   3
BRANCH   2   8
HETATM    8  S   LIG     1      15.995  35.254  19.829  1.00  0.00    -0.095 SA
BRANCH   8   9
HETATM    9  C   LIG     1      15.594  33.689  20.672  1.00  0.00     0.132 C 
BRANCH   9  10
HETATM   10  C   LIG     1      15.239  32.642  19.655  1.00  0.00     0.012 C 
HETATM   11  C   LIG     1      15.203  32.923  18.347  1.00  0.00     0.033 C 
HETATM   12 CL   LIG     1      14.838  31.017  20.197  1.00  0.00    -0.089 Cl
ENDBRANCH   9  10
ENDBRANCH   8   9
ENDBRANCH   2   8
TORSDOF 6
ENDMDL
MODEL 11
REMARK VINA RESULT:      -4.3      4.431      6.161
REMARK  6 active torsions:
REMARK  status: ('A' for Active; 'I' for Inactive)
REMARK    1  A    between atoms: C_2  and  N_8 
REMARK    2  A    between atoms: C_2  and  S_3 
REMARK    3  A    between atoms: S_3  and  C_4 
REMARK    4  A    between atoms: C_4  and  C_5 
REMARK    5  A    between atoms: N_8  and  C_9 
REMARK    6  A    between atoms: N_8  and  C_11 
ROOT
HETATM    1  S   LIG     1      14.938  31.896  20.062  1.00  0.00    -0.053 SA
HETATM    2  C   LIG     1      15.108  32.941  18.809  1.00  0.00     0.137 C 
ENDROOT
BRANCH   2   3
HETATM    3  N   LIG     1      14.853  32.533  17.443  1.00  0.00    -0.367 N 
BRANCH   3   4
HETATM    4  C   LIG     1      14.075  31.316  17.155  1.00  0.00     0.120 C 
HETATM    5  C   LIG     1      12.674  31.679  16.678  1.00  0.00     0.026 C 
ENDBRANCH   3   4
BRANCH   3   6
HETATM    6  C   LIG     1      15.413  33.304  16.323  1.00  0.00     0.120 C 
HETATM    7  C   LIG     1      16.203  32.394  15.388  1.00  0.00     0.026 C 
ENDBRANCH   3   6
ENDBRANCH   2   3
BRANCH   2   8
HETATM    8  S   LIG     1      15.617  34.622  19.195  1.00  0.00    -0.095 SA
BRANCH   8   9
HETATM    9  C   LIG     1      15.678  34.312  20.989  1.00  0.00     0.132 C 
BRANCH   9  10
HETATM   10  C   LIG     1      16.718  35.193  21.620  1.00  0.00     0.012 C 
HETATM   11  C   LIG     1      17.406  36.087  20.900  1.00  0.00     0.033 C 
HETATM   12 CL   LIG     1      17.056  35.031  23.339  1.00  0.00    -0.089 Cl
ENDBRANCH   9  10
ENDBRANCH   8   9
ENDBRANCH   2   8
TORSDOF 6
ENDMDL
MODEL 12
REMARK VINA RESULT:      -4.2      4.609      5.864
REMARK  6 active torsions:
REMARK  status: ('A' for Active; 'I' for Inactive)
REMARK    1  A    between atoms: C_2  and  N_8 
REMARK    2  A    between atoms: C_2  and  S_3 
REMARK    3  A    between atoms: S_3  and  C_4 
REMARK    4  A    between atoms: C_4  and  C_5 
REMARK    5  A    between atoms: N_8  and  C_9 
REMARK    6  A    between atoms: N_8  and  C_11 
ROOT
HETATM    1  S   LIG     1      15.199  31.850  20.014  1.00  0.00    -0.053 SA
HETATM    2  C   LIG     1      15.191  32.924  18.775  1.00  0.00     0.137 C 
ENDROOT
BRANCH   2   3
HETATM    3  N   LIG     1      14.874  32.516  17.422  1.00  0.00    -0.367 N 
BRANCH   3   4
HETATM    4  C   LIG     1      15.356  33.294  16.268  1.00  0.00     0.120 C 
HETATM    5  C   LIG     1      16.359  32.481  15.457  1.00  0.00     0.026 C 
ENDBRANCH   3   4
BRANCH   3   6
HETATM    6  C   LIG     1      14.020  31.342  17.184  1.00  0.00     0.120 C 
HETATM    7  C   LIG     1      12.705  31.759  16.536  1.00  0.00     0.026 C 
ENDBRANCH   3   6
ENDBRANCH   2   3
BRANCH   2   8
HETATM    8  S   LIG     1      15.583  34.636  19.159  1.00  0.00    -0.095 SA
BRANCH   8   9
HETATM    9  C   LIG     1      15.618  34.342  20.957  1.00  0.00     0.132 C 
BRANCH   9  10
HETATM   10  C   LIG     1      16.712  35.160  21.583  1.00  0.00     0.012 C 
HETATM   11  C   LIG     1      16.968  35.096  22.894  1.00  0.00     0.033 C 
HETATM   12 CL   LIG     1      17.662  36.242  20.572  1.00  0.00    -0.089 Cl
ENDBRANCH   9  10
ENDBRANCH   8   9
ENDBRANCH   2   8
TORSDOF 6
ENDMDL
MODEL 13
REMARK VINA RESULT:      -4.2      2.907      4.959
REMARK  6 active torsions:
REMARK  status: ('A' for Active; 'I' for Inactive)
REMARK    1  A    between atoms: C_2  and  N_8 
REMARK    2  A    between atoms: C_2  and  S_3 
REMARK    3  A    between atoms: S_3  and  C_4 
REMARK    4  A    between atoms: C_4  and  C_5 
REMARK    5  A    between atoms: N_8  and  C_9 
REMARK    6  A    between atoms: N_8  and  C_11 
ROOT
HETATM    1  S   LIG     1      16.985  35.148  23.838  1.00  0.00    -0.053 SA
HETATM    2  C   LIG     1      17.098  36.411  22.798  1.00  0.00     0.137 C 
ENDROOT
BRANCH   2   3
HETATM    3  N   LIG     1      17.487  37.731  23.252  1.00  0.00    -0.367 N 
BRANCH   3   4
HETATM    4  C   LIG     1      17.216  38.920  22.427  1.00  0.00     0.120 C 
HETATM    5  C   LIG     1      18.485  39.376  21.715  1.00  0.00     0.026 C 
ENDBRANCH   3   4
BRANCH   3   6
HETATM    6  C   LIG     1      18.207  37.894  24.524  1.00  0.00     0.120 C 
HETATM    7  C   LIG     1      17.243  38.285  25.638  1.00  0.00     0.026 C 
ENDBRANCH   3   6
ENDBRANCH   2   3
BRANCH   2   8
HETATM    8  S   LIG     1      16.730  36.096  21.068  1.00  0.00    -0.095 SA
BRANCH   8   9
HETATM    9  C   LIG     1      16.170  34.391  21.380  1.00  0.00     0.132 C 
BRANCH   9  10
HETATM   10  C   LIG     1      15.593  33.808  20.121  1.00  0.00     0.012 C 
HETATM   11  C   LIG     1      15.132  32.553  20.081  1.00  0.00     0.033 C 
HETATM   12 CL   LIG     1      15.542  34.792  18.663  1.00  0.00    -0.089 Cl
ENDBRANCH   9  10
ENDBRANCH   8   9
ENDBRANCH   2   8
TORSDOF 6
ENDMDL
MODEL 14
REMARK VINA RESULT:      -4.1      2.906      5.154
REMARK  6 active torsions:
REMARK  status: ('A' for Active; 'I' for Inactive)
REMARK    1  A    between atoms: C_2  and  N_8 
REMARK    2  A    between atoms: C_2  and  S_3 
REMARK    3  A    between atoms: S_3  and  C_4 
REMARK    4  A    between atoms: C_4  and  C_5 
REMARK    5  A    between atoms: N_8  and  C_9 
REMARK    6  A    between atoms: N_8  and  C_11 
ROOT
HETATM    1  S   LIG     1      16.951  35.208  23.815  1.00  0.00    -0.053 SA
HETATM    2  C   LIG     1      17.119  36.444  22.749  1.00  0.00     0.137 C 
ENDROOT
BRANCH   2   3
HETATM    3  N   LIG     1      17.524  37.765  23.182  1.00  0.00    -0.367 N 
BRANCH   3   4
HETATM    4  C   LIG     1      18.200  37.960  24.476  1.00  0.00     0.120 C 
HETATM    5  C   LIG     1      17.203  38.410  25.537  1.00  0.00     0.026 C 
ENDBRANCH   3   4
BRANCH   3   6
HETATM    6  C   LIG     1      17.217  38.941  22.353  1.00  0.00     0.120 C 
HETATM    7  C   LIG     1      18.464  39.416  21.616  1.00  0.00     0.026 C 
ENDBRANCH   3   6
ENDBRANCH   2   3
BRANCH   2   8
HETATM    8  S   LIG     1      16.789  36.095  21.017  1.00  0.00    -0.095 SA
BRANCH   8   9
HETATM    9  C   LIG     1      16.222  34.396  21.350  1.00  0.00     0.132 C 
BRANCH   9  10
HETATM   10  C   LIG     1      15.609  33.814  20.108  1.00  0.00     0.012 C 
HETATM   11  C   LIG     1      15.127  32.566  20.087  1.00  0.00     0.033 C 
HETATM   12 CL   LIG     1      15.542  34.788  18.644  1.00  0.00    -0.089 Cl
ENDBRANCH   9  10
ENDBRANCH   8   9
ENDBRANCH   2   8
TORSDOF 6
ENDMDL
MODEL 15
REMARK VINA RESULT:      -4.1      9.274     10.812
REMARK  6 active torsions:
REMARK  status: ('A' for Active; 'I' for Inactive)
REMARK    1  A    between atoms: C_2  and  N_8 
REMARK    2  A    between atoms: C_2  and  S_3 
REMARK    3  A    between atoms: S_3  and  C_4 
REMARK    4  A    between atoms: C_4  and  C_5 
REMARK    5  A    between atoms: N_8  and  C_9 
REMARK    6  A    between atoms: N_8  and  C_11 
ROOT
HETATM    1  S   LIG     1      17.594  35.079  11.598  1.00  0.00    -0.053 SA
HETATM    2  C   LIG     1      18.495  34.006  12.451  1.00  0.00     0.137 C 
ENDROOT
BRANCH   2   3
HETATM    3  N   LIG     1      19.732  33.469  11.922  1.00  0.00    -0.367 N 
BRANCH   3   4
HETATM    4  C   LIG     1      19.782  32.882  10.572  1.00  0.00     0.120 C 
HETATM    5  C   LIG     1      20.684  31.653  10.557  1.00  0.00     0.026 C 
ENDBRANCH   3   4
BRANCH   3   6
HETATM    6  C   LIG     1      20.947  33.457  12.751  1.00  0.00     0.120 C 
HETATM    7  C   LIG     1      21.685  34.786  12.639  1.00  0.00     0.026 C 
ENDBRANCH   3   6
ENDBRANCH   2   3
BRANCH   2   8
HETATM    8  S   LIG     1      17.895  33.526  14.076  1.00  0.00    -0.095 SA
BRANCH   8   9
HETATM    9  C   LIG     1      16.547  32.504  13.400  1.00  0.00     0.132 C 
BRANCH   9  10
HETATM   10  C   LIG     1      15.785  31.863  14.525  1.00  0.00     0.012 C 
HETATM   11  C   LIG     1      15.748  32.411  15.745  1.00  0.00     0.033 C 
HETATM   12 CL   LIG     1      14.942  30.345  14.238  1.00  0.00    -0.089 Cl
ENDBRANCH   9  10
ENDBRANCH   8   9
ENDBRANCH   2   8
TORSDOF 6
ENDMDL
MODEL 16
REMARK VINA RESULT:      -4.0      8.153     10.196
REMARK  6 active torsions:
REMARK  status: ('A' for Active; 'I' for Inactive)
REMARK    1  A    between atoms: C_2  and  N_8 
REMARK    2  A    between atoms: C_2  and  S_3 
REMARK    3  A    between atoms: S_3  and  C_4 
REMARK    4  A    between atoms: C_4  and  C_5 
REMARK    5  A    between atoms: N_8  and  C_9 
REMARK    6  A    between atoms: N_8  and  C_11 
ROOT
HETATM    1  S   LIG     1      15.548  31.009  13.635  1.00  0.00    -0.053 SA
HETATM    2  C   LIG     1      15.832  32.001  14.910  1.00  0.00     0.137 C 
ENDROOT
BRANCH   2   3
HETATM    3  N   LIG     1      14.965  32.006  16.071  1.00  0.00    -0.367 N 
BRANCH   3   4
HETATM    4  C   LIG     1      15.014  33.113  17.042  1.00  0.00     0.120 C 
HETATM    5  C   LIG     1      15.239  32.576  18.451  1.00  0.00     0.026 C 
ENDBRANCH   3   4
BRANCH   3   6
HETATM    6  C   LIG     1      14.059  30.876  16.322  1.00  0.00     0.120 C 
HETATM    7  C   LIG     1      12.618  31.360  16.436  1.00  0.00     0.026 C 
ENDBRANCH   3   6
ENDBRANCH   2   3
BRANCH   2   8
HETATM    8  S   LIG     1      17.266  33.081  14.818  1.00  0.00    -0.095 SA
BRANCH   8   9
HETATM    9  C   LIG     1      17.246  33.140  12.997  1.00  0.00     0.132 C 
BRANCH   9  10
HETATM   10  C   LIG     1      18.426  33.927  12.503  1.00  0.00     0.012 C 
HETATM   11  C   LIG     1      19.633  33.805  13.068  1.00  0.00     0.033 C 
HETATM   12 CL   LIG     1      18.211  35.051  11.166  1.00  0.00    -0.089 Cl
ENDBRANCH   9  10
ENDBRANCH   8   9
ENDBRANCH   2   8
TORSDOF 6
ENDMDL
MODEL 17
REMARK VINA RESULT:      -3.9      7.387      9.058
REMARK  6 active torsions:
REMARK  status: ('A' for Active; 'I' for Inactive)
REMARK    1  A    between atoms: C_2  and  N_8 
REMARK    2  A    between atoms: C_2  and  S_3 
REMARK    3  A    between atoms: S_3  and  C_4 
REMARK    4  A    between atoms: C_4  and  C_5 
REMARK    5  A    between atoms: N_8  and  C_9 
REMARK    6  A    between atoms: N_8  and  C_11 
ROOT
HETATM    1  S   LIG     1      16.116  32.359  15.408  1.00  0.00    -0.053 SA
HETATM    2  C   LIG     1      14.723  31.559  15.737  1.00  0.00     0.137 C 
ENDROOT
BRANCH   2   3
HETATM    3  N   LIG     1      14.200  30.549  14.839  1.00  0.00    -0.367 N 
BRANCH   3   4
HETATM    4  C   LIG     1      12.887  29.930  15.085  1.00  0.00     0.120 C 
HETATM    5  C   LIG     1      12.559  28.922  13.990  1.00  0.00     0.026 C 
ENDBRANCH   3   4
BRANCH   3   6
HETATM    6  C   LIG     1      15.002  30.090  13.695  1.00  0.00     0.120 C 
HETATM    7  C   LIG     1      15.699  28.774  14.023  1.00  0.00     0.026 C 
ENDBRANCH   3   6
ENDBRANCH   2   3
BRANCH   2   8
HETATM    8  S   LIG     1      13.867  31.977  17.261  1.00  0.00    -0.095 SA
BRANCH   8   9
HETATM    9  C   LIG     1      15.337  32.753  18.006  1.00  0.00     0.132 C 
BRANCH   9  10
HETATM   10  C   LIG     1      15.296  32.587  19.499  1.00  0.00     0.012 C 
HETATM   11  C   LIG     1      15.613  33.594  20.322  1.00  0.00     0.033 C 
HETATM   12 CL   LIG     1      14.842  31.030  20.180  1.00  0.00    -0.089 Cl
ENDBRANCH   9  10
ENDBRANCH   8   9
ENDBRANCH   2   8
TORSDOF 6
ENDMDL
MODEL 18
REMARK VINA RESULT:      -3.7      6.481      7.933
REMARK  6 active torsions:
REMARK  status: ('A' for Active; 'I' for Inactive)
REMARK    1  A    between atoms: C_2  and  N_8 
REMARK    2  A    between atoms: C_2  and  S_3 
REMARK    3  A    between atoms: S_3  and  C_4 
REMARK    4  A    between atoms: C_4  and  C_5 
REMARK    5  A    between atoms: N_8  and  C_9 
REMARK    6  A    between atoms: N_8  and  C_11 
ROOT
HETATM    1  S   LIG     1      13.526  31.012  16.417  1.00  0.00    -0.053 SA
HETATM    2  C   LIG     1      14.780  32.023  16.108  1.00  0.00     0.137 C 
ENDROOT
BRANCH   2   3
HETATM    3  N   LIG     1      15.741  31.737  15.062  1.00  0.00    -0.367 N 
BRANCH   3   4
HETATM    4  C   LIG     1      17.140  32.181  15.184  1.00  0.00     0.120 C 
HETATM    5  C   LIG     1      17.448  33.264  14.156  1.00  0.00     0.026 C 
ENDBRANCH   3   4
BRANCH   3   6
HETATM    6  C   LIG     1      15.318  31.041  13.838  1.00  0.00     0.120 C 
HETATM    7  C   LIG     1      15.429  29.531  14.015  1.00  0.00     0.026 C 
ENDBRANCH   3   6
ENDBRANCH   2   3
BRANCH   2   8
HETATM    8  S   LIG     1      14.915  33.508  17.110  1.00  0.00    -0.095 SA
BRANCH   8   9
HETATM    9  C   LIG     1      15.270  32.581  18.638  1.00  0.00     0.132 C 
BRANCH   9  10
HETATM   10  C   LIG     1      15.290  33.522  19.809  1.00  0.00     0.012 C 
HETATM   11  C   LIG     1      14.808  33.160  21.003  1.00  0.00     0.033 C 
HETATM   12 CL   LIG     1      15.940  35.144  19.599  1.00  0.00    -0.089 Cl
ENDBRANCH   9  10
ENDBRANCH   8   9
ENDBRANCH   2   8
TORSDOF 6
ENDMDL
MODEL 19
REMARK VINA RESULT:      -3.7      6.256      7.910
REMARK  6 active torsions:
REMARK  status: ('A' for Active; 'I' for Inactive)
REMARK    1  A    between atoms: C_2  and  N_8 
REMARK    2  A    between atoms: C_2  and  S_3 
REMARK    3  A    between atoms: S_3  and  C_4 
REMARK    4  A    between atoms: C_4  and  C_5 
REMARK    5  A    between atoms: N_8  and  C_9 
REMARK    6  A    between atoms: N_8  and  C_11 
ROOT
HETATM    1  S   LIG     1      13.430  31.300  16.618  1.00  0.00    -0.053 SA
HETATM    2  C   LIG     1      14.740  32.211  16.235  1.00  0.00     0.137 C 
ENDROOT
BRANCH   2   3
HETATM    3  N   LIG     1      15.650  31.820  15.179  1.00  0.00    -0.367 N 
BRANCH   3   4
HETATM    4  C   LIG     1      15.171  31.050  14.018  1.00  0.00     0.120 C 
HETATM    5  C   LIG     1      15.441  29.563  14.215  1.00  0.00     0.026 C 
ENDBRANCH   3   4
BRANCH   3   6
HETATM    6  C   LIG     1      17.082  32.143  15.278  1.00  0.00     0.120 C 
HETATM    7  C   LIG     1      17.453  33.241  14.287  1.00  0.00     0.026 C 
ENDBRANCH   3   6
ENDBRANCH   2   3
BRANCH   2   8
HETATM    8  S   LIG     1      15.000  33.723  17.171  1.00  0.00    -0.095 SA
BRANCH   8   9
HETATM    9  C   LIG     1      15.283  32.837  18.738  1.00  0.00     0.132 C 
BRANCH   9  10
HETATM   10  C   LIG     1      15.307  33.817  19.877  1.00  0.00     0.012 C 
HETATM   11  C   LIG     1      15.920  35.001  19.766  1.00  0.00     0.033 C 
HETATM   12 CL   LIG     1      14.533  33.388  21.398  1.00  0.00    -0.089 Cl
ENDBRANCH   9  10
ENDBRANCH   8   9
ENDBRANCH   2   8
TORSDOF 6
ENDMDL
MODEL 20
REMARK VINA RESULT:      -3.7      9.278     10.390
REMARK  6 active torsions:
REMARK  status: ('A' for Active; 'I' for Inactive)
REMARK    1  A    between atoms: C_2  and  N_8 
REMARK    2  A    between atoms: C_2  and  S_3 
REMARK    3  A    between atoms: S_3  and  C_4 
REMARK    4  A    between atoms: C_4  and  C_5 
REMARK    5  A    between atoms: N_8  and  C_9 
REMARK    6  A    between atoms: N_8  and  C_11 
ROOT
HETATM    1  S   LIG     1      17.515  34.388  14.746  1.00  0.00    -0.053 SA
HETATM    2  C   LIG     1      17.514  33.568  13.325  1.00  0.00     0.137 C 
ENDROOT
BRANCH   2   3
HETATM    3  N   LIG     1      18.384  33.950  12.231  1.00  0.00    -0.367 N 
BRANCH   3   4
HETATM    4  C   LIG     1      18.014  35.050  11.325  1.00  0.00     0.120 C 
HETATM    5  C   LIG     1      18.826  34.975  10.037  1.00  0.00     0.026 C 
ENDBRANCH   3   4
BRANCH   3   6
HETATM    6  C   LIG     1      19.628  33.207  11.981  1.00  0.00     0.120 C 
HETATM    7  C   LIG     1      20.781  33.810  12.774  1.00  0.00     0.026 C 
ENDBRANCH   3   6
ENDBRANCH   2   3
BRANCH   2   8
HETATM    8  S   LIG     1      16.398  32.167  13.177  1.00  0.00    -0.095 SA
BRANCH   8   9
HETATM    9  C   LIG     1      15.975  32.172  14.949  1.00  0.00     0.132 C 
BRANCH   9  10
HETATM   10  C   LIG     1      14.891  31.167  15.214  1.00  0.00     0.012 C 
HETATM   11  C   LIG     1      14.671  30.142  14.383  1.00  0.00     0.033 C 
HETATM   12 CL   LIG     1      13.872  31.355  16.637  1.00  0.00    -0.089 Cl
ENDBRANCH   9  10
ENDBRANCH   8   9
ENDBRANCH   2   8
TORSDOF 6
ENDMDL
