MODEL 1
REMARK VINA RESULT:      -6.5      0.000      0.000
REMARK  0 active torsions:
REMARK  status: ('A' for Active; 'I' for Inactive)
ROOT
HETATM    1  C   LIG     1      17.369  37.389  24.847  1.00  0.00     0.074 A 
HETATM    2  C   LIG     1      17.893  37.352  26.140  1.00  0.00     0.033 A 
HETATM    3  C   LIG     1      18.165  36.102  26.723  1.00  0.00     0.002 A 
HETATM    4  C   LIG     1      17.912  34.912  26.011  1.00  0.00     0.002 A 
HETATM    5  C   LIG     1      17.385  34.961  24.711  1.00  0.00     0.021 A 
HETATM    6  C   LIG     1      17.125  36.213  24.157  1.00  0.00     0.035 A 
HETATM    7  S   LIG     1      16.503  36.585  22.645  1.00  0.00    -0.081 SA
HETATM    8  C   LIG     1      16.573  38.253  22.939  1.00  0.00     0.167 A 
HETATM    9  N   LIG     1      17.063  38.527  24.173  1.00  0.00    -0.253 NA
ENDROOT
TORSDOF 0
ENDMDL
MODEL 2
REMARK VINA RESULT:      -6.3      1.257      2.049
REMARK  0 active torsions:
REMARK  status: ('A' for Active; 'I' for Inactive)
ROOT
HETATM    1  C   LIG     1      17.208  36.003  24.151  1.00  0.00     0.074 A 
HETATM    2  C   LIG     1      17.363  34.838  24.904  1.00  0.00     0.033 A 
HETATM    3  C   LIG     1      17.885  34.939  26.205  1.00  0.00     0.002 A 
HETATM    4  C   LIG     1      18.242  36.195  26.736  1.00  0.00     0.002 A 
HETATM    5  C   LIG     1      18.082  37.360  25.970  1.00  0.00     0.021 A 
HETATM    6  C   LIG     1      17.563  37.232  24.683  1.00  0.00     0.035 A 
HETATM    7  S   LIG     1      17.261  38.427  23.546  1.00  0.00    -0.081 SA
HETATM    8  C   LIG     1      16.682  37.311  22.410  1.00  0.00     0.167 A 
HETATM    9  N   LIG     1      16.717  36.042  22.887  1.00  0.00    -0.253 NA
ENDROOT
TORSDOF 0
ENDMDL
MODEL 3
REMARK VINA RESULT:      -5.8      3.034      4.591
REMARK  0 active torsions:
REMARK  status: ('A' for Active; 'I' for Inactive)
ROOT
HETATM    1  C   LIG     1      17.802  38.543  21.583  1.00  0.00     0.074 A 
HETATM    2  C   LIG     1      18.749  39.389  21.004  1.00  0.00     0.033 A 
HETATM    3  C   LIG     1      19.549  38.892  19.960  1.00  0.00     0.002 A 
HETATM    4  C   LIG     1      19.392  37.566  19.508  1.00  0.00     0.002 A 
HETATM    5  C   LIG     1      18.436  36.725  20.099  1.00  0.00     0.021 A 
HETATM    6  C   LIG     1      17.657  37.242  21.132  1.00  0.00     0.035 A 
HETATM    7  S   LIG     1      16.450  36.487  22.018  1.00  0.00    -0.081 SA
HETATM    8  C   LIG     1      16.160  37.871  22.951  1.00  0.00     0.167 A 
HETATM    9  N   LIG     1      16.971  38.898  22.596  1.00  0.00    -0.253 NA
ENDROOT
TORSDOF 0
ENDMDL
MODEL 4
REMARK VINA RESULT:      -5.8      3.580      5.123
REMARK  0 active torsions:
REMARK  status: ('A' for Active; 'I' for Inactive)
ROOT
HETATM    1  C   LIG     1      17.923  36.851  20.691  1.00  0.00     0.074 A 
HETATM    2  C   LIG     1      18.873  36.915  19.670  1.00  0.00     0.033 A 
HETATM    3  C   LIG     1      19.611  38.101  19.509  1.00  0.00     0.002 A 
HETATM    4  C   LIG     1      19.393  39.200  20.364  1.00  0.00     0.002 A 
HETATM    5  C   LIG     1      18.435  39.124  21.387  1.00  0.00     0.021 A 
HETATM    6  C   LIG     1      17.718  37.938  21.525  1.00  0.00     0.035 A 
HETATM    7  S   LIG     1      16.524  37.553  22.639  1.00  0.00    -0.081 SA
HETATM    8  C   LIG     1      16.319  35.997  22.001  1.00  0.00     0.167 A 
HETATM    9  N   LIG     1      17.147  35.769  20.952  1.00  0.00    -0.253 NA
ENDROOT
TORSDOF 0
ENDMDL
MODEL 5
REMARK VINA RESULT:      -5.5      2.039      3.775
REMARK  0 active torsions:
REMARK  status: ('A' for Active; 'I' for Inactive)
ROOT
HETATM    1  C   LIG     1      17.242  35.997  24.185  1.00  0.00     0.074 A 
HETATM    2  C   LIG     1      16.786  36.190  22.880  1.00  0.00     0.033 A 
HETATM    3  C   LIG     1      16.785  37.493  22.351  1.00  0.00     0.002 A 
HETATM    4  C   LIG     1      17.236  38.579  23.127  1.00  0.00     0.002 A 
HETATM    5  C   LIG     1      17.693  38.372  24.439  1.00  0.00     0.021 A 
HETATM    6  C   LIG     1      17.684  37.072  24.938  1.00  0.00     0.035 A 
HETATM    7  S   LIG     1      18.162  36.521  26.448  1.00  0.00    -0.081 SA
HETATM    8  C   LIG     1      17.781  34.914  26.070  1.00  0.00     0.167 A 
HETATM    9  N   LIG     1      17.294  34.793  24.811  1.00  0.00    -0.253 NA
ENDROOT
TORSDOF 0
ENDMDL
MODEL 6
REMARK VINA RESULT:      -5.5      3.647      4.603
REMARK  0 active torsions:
REMARK  status: ('A' for Active; 'I' for Inactive)
ROOT
HETATM    1  C   LIG     1      18.033  36.885  20.623  1.00  0.00     0.074 A 
HETATM    2  C   LIG     1      17.167  35.899  21.100  1.00  0.00     0.033 A 
HETATM    3  C   LIG     1      16.313  36.213  22.172  1.00  0.00     0.002 A 
HETATM    4  C   LIG     1      16.332  37.499  22.748  1.00  0.00     0.002 A 
HETATM    5  C   LIG     1      17.207  38.482  22.260  1.00  0.00     0.021 A 
HETATM    6  C   LIG     1      18.043  38.145  21.198  1.00  0.00     0.035 A 
HETATM    7  S   LIG     1      19.179  39.095  20.411  1.00  0.00    -0.081 SA
HETATM    8  C   LIG     1      19.614  37.842  19.357  1.00  0.00     0.167 A 
HETATM    9  N   LIG     1      18.905  36.711  19.598  1.00  0.00    -0.253 NA
ENDROOT
TORSDOF 0
ENDMDL
MODEL 7
REMARK VINA RESULT:      -5.2      2.011      3.495
REMARK  0 active torsions:
REMARK  status: ('A' for Active; 'I' for Inactive)
ROOT
HETATM    1  C   LIG     1      17.127  36.390  23.668  1.00  0.00     0.074 A 
HETATM    2  C   LIG     1      16.936  35.114  23.136  1.00  0.00     0.033 A 
HETATM    3  C   LIG     1      16.975  34.952  21.740  1.00  0.00     0.002 A 
HETATM    4  C   LIG     1      17.203  36.059  20.899  1.00  0.00     0.002 A 
HETATM    5  C   LIG     1      17.394  37.338  21.445  1.00  0.00     0.021 A 
HETATM    6  C   LIG     1      17.351  37.471  22.831  1.00  0.00     0.035 A 
HETATM    7  S   LIG     1      17.540  38.853  23.762  1.00  0.00    -0.081 SA
HETATM    8  C   LIG     1      17.327  38.002  25.212  1.00  0.00     0.167 A 
HETATM    9  N   LIG     1      17.113  36.681  24.994  1.00  0.00    -0.253 NA
ENDROOT
TORSDOF 0
ENDMDL
MODEL 8
REMARK VINA RESULT:      -5.1     10.169     11.121
REMARK  0 active torsions:
REMARK  status: ('A' for Active; 'I' for Inactive)
ROOT
HETATM    1  C   LIG     1      15.464  32.307  15.295  1.00  0.00     0.074 A 
HETATM    2  C   LIG     1      15.983  31.963  14.045  1.00  0.00     0.033 A 
HETATM    3  C   LIG     1      15.535  30.781  13.430  1.00  0.00     0.002 A 
HETATM    4  C   LIG     1      14.579  29.963  14.066  1.00  0.00     0.002 A 
HETATM    5  C   LIG     1      14.064  30.319  15.322  1.00  0.00     0.021 A 
HETATM    6  C   LIG     1      14.525  31.495  15.910  1.00  0.00     0.035 A 
HETATM    7  S   LIG     1      14.101  32.172  17.384  1.00  0.00    -0.081 SA
HETATM    8  C   LIG     1      15.146  33.488  17.171  1.00  0.00     0.167 A 
HETATM    9  N   LIG     1      15.813  33.417  15.993  1.00  0.00    -0.253 NA
ENDROOT
TORSDOF 0
ENDMDL
MODEL 9
REMARK VINA RESULT:      -5.0     10.181     11.035
REMARK  0 active torsions:
REMARK  status: ('A' for Active; 'I' for Inactive)
ROOT
HETATM    1  C   LIG     1      15.712  32.632  15.527  1.00  0.00     0.074 A 
HETATM    2  C   LIG     1      14.727  32.028  16.312  1.00  0.00     0.033 A 
HETATM    3  C   LIG     1      14.107  30.859  15.837  1.00  0.00     0.002 A 
HETATM    4  C   LIG     1      14.477  30.310  14.592  1.00  0.00     0.002 A 
HETATM    5  C   LIG     1      15.468  30.926  13.812  1.00  0.00     0.021 A 
HETATM    6  C   LIG     1      16.067  32.083  14.306  1.00  0.00     0.035 A 
HETATM    7  S   LIG     1      17.264  33.028  13.610  1.00  0.00    -0.081 SA
HETATM    8  C   LIG     1      17.279  34.109  14.914  1.00  0.00     0.167 A 
HETATM    9  N   LIG     1      16.384  33.760  15.870  1.00  0.00    -0.253 NA
ENDROOT
TORSDOF 0
ENDMDL
MODEL 10
REMARK VINA RESULT:      -5.0     10.529     11.331
REMARK  0 active torsions:
REMARK  status: ('A' for Active; 'I' for Inactive)
ROOT
HETATM    1  C   LIG     1      15.306  31.441  15.049  1.00  0.00     0.074 A 
HETATM    2  C   LIG     1      15.653  32.556  15.814  1.00  0.00     0.033 A 
HETATM    3  C   LIG     1      14.860  32.885  16.928  1.00  0.00     0.002 A 
HETATM    4  C   LIG     1      13.738  32.100  17.262  1.00  0.00     0.002 A 
HETATM    5  C   LIG     1      13.398  30.981  16.485  1.00  0.00     0.021 A 
HETATM    6  C   LIG     1      14.201  30.678  15.387  1.00  0.00     0.035 A 
HETATM    7  S   LIG     1      14.049  29.421  14.288  1.00  0.00    -0.081 SA
HETATM    8  C   LIG     1      15.417  29.911  13.417  1.00  0.00     0.167 A 
HETATM    9  N   LIG     1      15.986  31.019  13.954  1.00  0.00    -0.253 NA
ENDROOT
TORSDOF 0
ENDMDL
MODEL 11
REMARK VINA RESULT:      -4.9     10.388     11.322
REMARK  0 active torsions:
REMARK  status: ('A' for Active; 'I' for Inactive)
ROOT
HETATM    1  C   LIG     1      14.015  31.482  16.023  1.00  0.00     0.074 A 
HETATM    2  C   LIG     1      13.090  30.474  15.742  1.00  0.00     0.033 A 
HETATM    3  C   LIG     1      13.365  29.579  14.693  1.00  0.00     0.002 A 
HETATM    4  C   LIG     1      14.553  29.700  13.944  1.00  0.00     0.002 A 
HETATM    5  C   LIG     1      15.475  30.717  14.236  1.00  0.00     0.021 A 
HETATM    6  C   LIG     1      15.178  31.591  15.280  1.00  0.00     0.035 A 
HETATM    7  S   LIG     1      16.074  32.887  15.854  1.00  0.00    -0.081 SA
HETATM    8  C   LIG     1      14.925  33.257  17.043  1.00  0.00     0.167 A 
HETATM    9  N   LIG     1      13.869  32.407  17.005  1.00  0.00    -0.253 NA
ENDROOT
TORSDOF 0
ENDMDL
MODEL 12
REMARK VINA RESULT:      -4.8     10.273     11.161
REMARK  0 active torsions:
REMARK  status: ('A' for Active; 'I' for Inactive)
ROOT
HETATM    1  C   LIG     1      15.332  31.463  14.609  1.00  0.00     0.074 A 
HETATM    2  C   LIG     1      14.296  30.573  14.899  1.00  0.00     0.033 A 
HETATM    3  C   LIG     1      13.665  30.657  16.153  1.00  0.00     0.002 A 
HETATM    4  C   LIG     1      14.073  31.623  17.095  1.00  0.00     0.002 A 
HETATM    5  C   LIG     1      15.115  32.513  16.791  1.00  0.00     0.021 A 
HETATM    6  C   LIG     1      15.723  32.408  15.542  1.00  0.00     0.035 A 
HETATM    7  S   LIG     1      16.978  33.319  14.904  1.00  0.00    -0.081 SA
HETATM    8  C   LIG     1      16.966  32.459  13.444  1.00  0.00     0.167 A 
HETATM    9  N   LIG     1      16.020  31.487  13.439  1.00  0.00    -0.253 NA
ENDROOT
TORSDOF 0
ENDMDL
MODEL 13
REMARK VINA RESULT:      -4.8      1.822      2.392
REMARK  0 active torsions:
REMARK  status: ('A' for Active; 'I' for Inactive)
ROOT
HETATM    1  C   LIG     1      17.396  37.205  22.591  1.00  0.00     0.074 A 
HETATM    2  C   LIG     1      17.722  38.295  23.399  1.00  0.00     0.033 A 
HETATM    3  C   LIG     1      17.758  38.115  24.793  1.00  0.00     0.002 A 
HETATM    4  C   LIG     1      17.471  36.856  25.358  1.00  0.00     0.002 A 
HETATM    5  C   LIG     1      17.144  35.767  24.535  1.00  0.00     0.021 A 
HETATM    6  C   LIG     1      17.116  35.973  23.157  1.00  0.00     0.035 A 
HETATM    7  S   LIG     1      16.765  34.878  21.937  1.00  0.00    -0.081 SA
HETATM    8  C   LIG     1      16.989  36.038  20.722  1.00  0.00     0.167 A 
HETATM    9  N   LIG     1      17.327  37.246  21.236  1.00  0.00    -0.253 NA
ENDROOT
TORSDOF 0
ENDMDL
MODEL 14
REMARK VINA RESULT:      -4.7     10.218     11.065
REMARK  0 active torsions:
REMARK  status: ('A' for Active; 'I' for Inactive)
ROOT
HETATM    1  C   LIG     1      14.523  31.003  15.406  1.00  0.00     0.074 A 
HETATM    2  C   LIG     1      13.777  30.888  16.580  1.00  0.00     0.033 A 
HETATM    3  C   LIG     1      13.945  31.858  17.584  1.00  0.00     0.002 A 
HETATM    4  C   LIG     1      14.848  32.924  17.403  1.00  0.00     0.002 A 
HETATM    5  C   LIG     1      15.593  33.030  16.218  1.00  0.00     0.021 A 
HETATM    6  C   LIG     1      15.408  32.055  15.239  1.00  0.00     0.035 A 
HETATM    7  S   LIG     1      16.145  31.917  13.740  1.00  0.00    -0.081 SA
HETATM    8  C   LIG     1      15.292  30.503  13.362  1.00  0.00     0.167 A 
HETATM    9  N   LIG     1      14.455  30.136  14.364  1.00  0.00    -0.253 NA
ENDROOT
TORSDOF 0
ENDMDL
MODEL 15
REMARK VINA RESULT:      -4.4     10.467     11.515
REMARK  0 active torsions:
REMARK  status: ('A' for Active; 'I' for Inactive)
ROOT
HETATM    1  C   LIG     1      14.703  31.100  14.866  1.00  0.00     0.074 A 
HETATM    2  C   LIG     1      15.398  31.042  13.657  1.00  0.00     0.033 A 
HETATM    3  C   LIG     1      16.476  31.922  13.455  1.00  0.00     0.002 A 
HETATM    4  C   LIG     1      16.844  32.843  14.456  1.00  0.00     0.002 A 
HETATM    5  C   LIG     1      16.137  32.892  15.668  1.00  0.00     0.021 A 
HETATM    6  C   LIG     1      15.074  32.009  15.843  1.00  0.00     0.035 A 
HETATM    7  S   LIG     1      14.057  31.835  17.165  1.00  0.00    -0.081 SA
HETATM    8  C   LIG     1      13.177  30.591  16.425  1.00  0.00     0.167 A 
HETATM    9  N   LIG     1      13.648  30.309  15.185  1.00  0.00    -0.253 NA
ENDROOT
TORSDOF 0
ENDMDL
MODEL 16
REMARK VINA RESULT:      -4.2     10.323     11.258
REMARK  0 active torsions:
REMARK  status: ('A' for Active; 'I' for Inactive)
ROOT
HETATM    1  C   LIG     1      14.874  31.859  15.924  1.00  0.00     0.074 A 
HETATM    2  C   LIG     1      15.832  32.859  16.098  1.00  0.00     0.033 A 
HETATM    3  C   LIG     1      16.738  33.115  15.053  1.00  0.00     0.002 A 
HETATM    4  C   LIG     1      16.675  32.374  13.856  1.00  0.00     0.002 A 
HETATM    5  C   LIG     1      15.706  31.371  13.693  1.00  0.00     0.021 A 
HETATM    6  C   LIG     1      14.821  31.138  14.743  1.00  0.00     0.035 A 
HETATM    7  S   LIG     1      13.574  30.021  14.841  1.00  0.00    -0.081 SA
HETATM    8  C   LIG     1      13.149  30.513  16.405  1.00  0.00     0.167 A 
HETATM    9  N   LIG     1      13.945  31.515  16.852  1.00  0.00    -0.253 NA
ENDROOT
TORSDOF 0
ENDMDL
MODEL 17
REMARK VINA RESULT:      -4.0     16.628     17.033
REMARK  0 active torsions:
REMARK  status: ('A' for Active; 'I' for Inactive)
ROOT
HETATM    1  C   LIG     1       3.829  41.371  33.654  1.00  0.00     0.074 A 
HETATM    2  C   LIG     1       3.624  40.081  33.161  1.00  0.00     0.033 A 
HETATM    3  C   LIG     1       3.310  39.920  31.800  1.00  0.00     0.002 A 
HETATM    4  C   LIG     1       3.207  41.042  30.953  1.00  0.00     0.002 A 
HETATM    5  C   LIG     1       3.415  42.335  31.460  1.00  0.00     0.021 A 
HETATM    6  C   LIG     1       3.724  42.466  32.812  1.00  0.00     0.035 A 
HETATM    7  S   LIG     1       4.022  43.862  33.693  1.00  0.00    -0.081 SA
HETATM    8  C   LIG     1       4.277  42.998  35.128  1.00  0.00     0.167 A 
HETATM    9  N   LIG     1       4.136  41.662  34.944  1.00  0.00    -0.253 NA
ENDROOT
TORSDOF 0
ENDMDL
MODEL 18
REMARK VINA RESULT:      -3.9     16.762     17.299
REMARK  0 active torsions:
REMARK  status: ('A' for Active; 'I' for Inactive)
ROOT
HETATM    1  C   LIG     1       3.771  41.419  33.148  1.00  0.00     0.074 A 
HETATM    2  C   LIG     1       3.500  42.250  32.059  1.00  0.00     0.033 A 
HETATM    3  C   LIG     1       3.614  43.641  32.227  1.00  0.00     0.002 A 
HETATM    4  C   LIG     1       3.995  44.182  33.471  1.00  0.00     0.002 A 
HETATM    5  C   LIG     1       4.265  43.337  34.559  1.00  0.00     0.021 A 
HETATM    6  C   LIG     1       4.145  41.962  34.366  1.00  0.00     0.035 A 
HETATM    7  S   LIG     1       4.399  40.720  35.463  1.00  0.00    -0.081 SA
HETATM    8  C   LIG     1       4.017  39.527  34.322  1.00  0.00     0.167 A 
HETATM    9  N   LIG     1       3.698  40.064  33.119  1.00  0.00    -0.253 NA
ENDROOT
TORSDOF 0
ENDMDL
