REMARK  0 active torsions:
REMARK  status: ('A' for Active; 'I' for Inactive)
ROOT
HETATM    1  C   LIG     1       0.668  -0.535  -0.004  1.00  0.00     0.074 A 
HETATM    2  C   LIG     1      -0.389  -1.419   0.221  1.00  0.00     0.033 A 
HETATM    3  C   LIG     1      -1.695  -0.904   0.297  1.00  0.00     0.002 A 
HETATM    4  C   LIG     1      -1.928   0.478   0.147  1.00  0.00     0.002 A 
HETATM    5  C   LIG     1      -0.857   1.357  -0.079  1.00  0.00     0.021 A 
HETATM    6  C   LIG     1       0.427   0.821  -0.150  1.00  0.00     0.035 A 
HETATM    7  S   LIG     1       1.884   1.610  -0.406  1.00  0.00    -0.081 SA
HETATM    8  C   LIG     1       2.771   0.169  -0.320  1.00  0.00     0.167 A 
HETATM    9  N   LIG     1       1.971  -0.903  -0.098  1.00  0.00    -0.253 NA
ENDROOT
TORSDOF 0
