MODEL 1
REMARK VINA RESULT:      -6.8      0.000      0.000
REMARK  0 active torsions:
REMARK  status: ('A' for Active; 'I' for Inactive)
ROOT
HETATM    1  C   LIG     1      17.078  36.691  24.492  1.00  0.00     0.102 A 
HETATM    2  C   LIG     1      17.158  35.302  24.480  1.00  0.00     0.035 A 
HETATM    3  C   LIG     1      17.821  34.683  25.560  1.00  0.00     0.002 A 
HETATM    4  C   LIG     1      18.375  35.464  26.604  1.00  0.00     0.002 A 
HETATM    5  C   LIG     1      18.272  36.869  26.578  1.00  0.00     0.033 A 
HETATM    6  C   LIG     1      17.610  37.437  25.494  1.00  0.00     0.076 A 
HETATM    7  N   LIG     1      17.369  38.724  25.217  1.00  0.00    -0.280 N 
HETATM    8  N   LIG     1      16.703  38.747  24.066  1.00  0.00     0.003 NA
HETATM    9  N   LIG     1      16.508  37.515  23.595  1.00  0.00    -0.158 NA
HETATM   10  H   LIG     1      17.640  39.562  25.776  1.00  0.00     0.184 HD
ENDROOT
TORSDOF 0
ENDMDL
MODEL 2
REMARK VINA RESULT:      -6.7      0.424      1.956
REMARK  0 active torsions:
REMARK  status: ('A' for Active; 'I' for Inactive)
ROOT
HETATM    1  C   LIG     1      17.423  37.445  25.216  1.00  0.00     0.102 A 
HETATM    2  C   LIG     1      18.076  37.147  26.408  1.00  0.00     0.035 A 
HETATM    3  C   LIG     1      18.328  35.788  26.685  1.00  0.00     0.002 A 
HETATM    4  C   LIG     1      17.924  34.782  25.772  1.00  0.00     0.002 A 
HETATM    5  C   LIG     1      17.264  35.127  24.575  1.00  0.00     0.033 A 
HETATM    6  C   LIG     1      17.036  36.480  24.343  1.00  0.00     0.076 A 
HETATM    7  N   LIG     1      16.441  37.082  23.307  1.00  0.00    -0.280 N 
HETATM    8  N   LIG     1      16.470  38.388  23.557  1.00  0.00     0.003 NA
HETATM    9  N   LIG     1      17.067  38.644  24.721  1.00  0.00    -0.158 NA
HETATM   10  H   LIG     1      16.026  36.637  22.459  1.00  0.00     0.184 HD
ENDROOT
TORSDOF 0
ENDMDL
MODEL 3
REMARK VINA RESULT:      -6.2      1.688      2.854
REMARK  0 active torsions:
REMARK  status: ('A' for Active; 'I' for Inactive)
ROOT
HETATM    1  C   LIG     1      16.953  37.644  23.513  1.00  0.00     0.102 A 
HETATM    2  C   LIG     1      16.865  37.545  22.128  1.00  0.00     0.035 A 
HETATM    3  C   LIG     1      16.915  36.252  21.568  1.00  0.00     0.002 A 
HETATM    4  C   LIG     1      17.048  35.113  22.400  1.00  0.00     0.002 A 
HETATM    5  C   LIG     1      17.134  35.257  23.800  1.00  0.00     0.033 A 
HETATM    6  C   LIG     1      17.081  36.551  24.309  1.00  0.00     0.076 A 
HETATM    7  N   LIG     1      17.138  36.974  25.577  1.00  0.00    -0.280 N 
HETATM    8  N   LIG     1      17.047  38.301  25.540  1.00  0.00     0.003 NA
HETATM    9  N   LIG     1      16.932  38.744  24.288  1.00  0.00    -0.158 NA
HETATM   10  H   LIG     1      17.237  36.399  26.442  1.00  0.00     0.184 HD
ENDROOT
TORSDOF 0
ENDMDL
MODEL 4
REMARK VINA RESULT:      -6.1      9.599     10.482
REMARK  0 active torsions:
REMARK  status: ('A' for Active; 'I' for Inactive)
ROOT
HETATM    1  C   LIG     1      15.381  32.600  15.735  1.00  0.00     0.102 A 
HETATM    2  C   LIG     1      15.364  31.427  14.985  1.00  0.00     0.035 A 
HETATM    3  C   LIG     1      14.328  30.508  15.246  1.00  0.00     0.002 A 
HETATM    4  C   LIG     1      13.352  30.788  16.234  1.00  0.00     0.002 A 
HETATM    5  C   LIG     1      13.404  31.988  16.971  1.00  0.00     0.033 A 
HETATM    6  C   LIG     1      14.445  32.865  16.682  1.00  0.00     0.076 A 
HETATM    7  N   LIG     1      14.733  34.057  17.218  1.00  0.00    -0.280 N 
HETATM    8  N   LIG     1      15.827  34.497  16.601  1.00  0.00     0.003 NA
HETATM    9  N   LIG     1      16.249  33.626  15.685  1.00  0.00    -0.158 NA
HETATM   10  H   LIG     1      14.219  34.562  17.973  1.00  0.00     0.184 HD
ENDROOT
TORSDOF 0
ENDMDL
MODEL 5
REMARK VINA RESULT:      -6.0      3.577      4.633
REMARK  0 active torsions:
REMARK  status: ('A' for Active; 'I' for Inactive)
ROOT
HETATM    1  C   LIG     1      17.513  38.643  22.010  1.00  0.00     0.102 A 
HETATM    2  C   LIG     1      18.499  39.279  21.262  1.00  0.00     0.035 A 
HETATM    3  C   LIG     1      19.113  38.534  20.235  1.00  0.00     0.002 A 
HETATM    4  C   LIG     1      18.726  37.194  19.990  1.00  0.00     0.002 A 
HETATM    5  C   LIG     1      17.722  36.586  20.771  1.00  0.00     0.033 A 
HETATM    6  C   LIG     1      17.143  37.358  21.773  1.00  0.00     0.076 A 
HETATM    7  N   LIG     1      16.183  37.042  22.650  1.00  0.00    -0.280 N 
HETATM    8  N   LIG     1      15.982  38.122  23.400  1.00  0.00     0.003 NA
HETATM    9  N   LIG     1      16.783  39.122  23.033  1.00  0.00    -0.158 NA
HETATM   10  H   LIG     1      15.677  36.134  22.748  1.00  0.00     0.184 HD
ENDROOT
TORSDOF 0
ENDMDL
MODEL 6
REMARK VINA RESULT:      -6.0      4.240      4.933
REMARK  0 active torsions:
REMARK  status: ('A' for Active; 'I' for Inactive)
ROOT
HETATM    1  C   LIG     1      18.671  37.720  20.232  1.00  0.00     0.102 A 
HETATM    2  C   LIG     1      18.025  36.505  20.434  1.00  0.00     0.035 A 
HETATM    3  C   LIG     1      17.084  36.439  21.482  1.00  0.00     0.002 A 
HETATM    4  C   LIG     1      16.821  37.578  22.283  1.00  0.00     0.002 A 
HETATM    5  C   LIG     1      17.497  38.791  22.045  1.00  0.00     0.033 A 
HETATM    6  C   LIG     1      18.418  38.810  21.002  1.00  0.00     0.076 A 
HETATM    7  N   LIG     1      19.190  39.810  20.560  1.00  0.00    -0.280 N 
HETATM    8  N   LIG     1      19.895  39.325  19.542  1.00  0.00     0.003 NA
HETATM    9  N   LIG     1      19.600  38.045  19.314  1.00  0.00    -0.158 NA
HETATM   10  H   LIG     1      19.247  40.786  20.925  1.00  0.00     0.184 HD
ENDROOT
TORSDOF 0
ENDMDL
MODEL 7
REMARK VINA RESULT:      -6.0      1.652      2.866
REMARK  0 active torsions:
REMARK  status: ('A' for Active; 'I' for Inactive)
ROOT
HETATM    1  C   LIG     1      17.143  36.611  24.288  1.00  0.00     0.102 A 
HETATM    2  C   LIG     1      17.181  35.273  23.909  1.00  0.00     0.035 A 
HETATM    3  C   LIG     1      17.007  34.982  22.541  1.00  0.00     0.002 A 
HETATM    4  C   LIG     1      16.804  36.027  21.605  1.00  0.00     0.002 A 
HETATM    5  C   LIG     1      16.772  37.371  22.030  1.00  0.00     0.033 A 
HETATM    6  C   LIG     1      16.948  37.611  23.390  1.00  0.00     0.076 A 
HETATM    7  N   LIG     1      16.963  38.770  24.059  1.00  0.00    -0.280 N 
HETATM    8  N   LIG     1      17.164  38.467  25.338  1.00  0.00     0.003 NA
HETATM    9  N   LIG     1      17.279  37.151  25.513  1.00  0.00    -0.158 NA
HETATM   10  H   LIG     1      16.843  39.733  23.676  1.00  0.00     0.184 HD
ENDROOT
TORSDOF 0
ENDMDL
MODEL 8
REMARK VINA RESULT:      -5.8      9.577     10.546
REMARK  0 active torsions:
REMARK  status: ('A' for Active; 'I' for Inactive)
ROOT
HETATM    1  C   LIG     1      15.087  33.178  16.425  1.00  0.00     0.102 A 
HETATM    2  C   LIG     1      13.976  32.498  16.915  1.00  0.00     0.035 A 
HETATM    3  C   LIG     1      13.699  31.231  16.364  1.00  0.00     0.002 A 
HETATM    4  C   LIG     1      14.532  30.689  15.354  1.00  0.00     0.002 A 
HETATM    5  C   LIG     1      15.648  31.411  14.885  1.00  0.00     0.033 A 
HETATM    6  C   LIG     1      15.884  32.658  15.456  1.00  0.00     0.076 A 
HETATM    7  N   LIG     1      16.855  33.543  15.207  1.00  0.00    -0.280 N 
HETATM    8  N   LIG     1      16.642  34.579  16.014  1.00  0.00     0.003 NA
HETATM    9  N   LIG     1      15.565  34.386  16.775  1.00  0.00    -0.158 NA
HETATM   10  H   LIG     1      17.636  33.463  14.519  1.00  0.00     0.184 HD
ENDROOT
TORSDOF 0
ENDMDL
MODEL 9
REMARK VINA RESULT:      -5.8      4.180      5.176
REMARK  0 active torsions:
REMARK  status: ('A' for Active; 'I' for Inactive)
ROOT
HETATM    1  C   LIG     1      18.032  36.777  20.395  1.00  0.00     0.102 A 
HETATM    2  C   LIG     1      19.040  37.008  19.463  1.00  0.00     0.035 A 
HETATM    3  C   LIG     1      19.721  38.240  19.540  1.00  0.00     0.002 A 
HETATM    4  C   LIG     1      19.377  39.190  20.533  1.00  0.00     0.002 A 
HETATM    5  C   LIG     1      18.350  38.917  21.458  1.00  0.00     0.033 A 
HETATM    6  C   LIG     1      17.705  37.689  21.346  1.00  0.00     0.076 A 
HETATM    7  N   LIG     1      16.709  37.176  22.078  1.00  0.00    -0.280 N 
HETATM    8  N   LIG     1      16.445  35.974  21.572  1.00  0.00     0.003 NA
HETATM    9  N   LIG     1      17.240  35.699  20.538  1.00  0.00    -0.158 NA
HETATM   10  H   LIG     1      16.219  37.611  22.890  1.00  0.00     0.184 HD
ENDROOT
TORSDOF 0
ENDMDL
MODEL 10
REMARK VINA RESULT:      -5.7      4.222      5.204
REMARK  0 active torsions:
REMARK  status: ('A' for Active; 'I' for Inactive)
ROOT
HETATM    1  C   LIG     1      18.365  38.781  20.941  1.00  0.00     0.102 A 
HETATM    2  C   LIG     1      17.471  38.844  22.004  1.00  0.00     0.035 A 
HETATM    3  C   LIG     1      16.793  37.658  22.351  1.00  0.00     0.002 A 
HETATM    4  C   LIG     1      17.029  36.460  21.632  1.00  0.00     0.002 A 
HETATM    5  C   LIG     1      17.944  36.438  20.560  1.00  0.00     0.033 A 
HETATM    6  C   LIG     1      18.590  37.632  20.253  1.00  0.00     0.076 A 
HETATM    7  N   LIG     1      19.493  37.896  19.301  1.00  0.00    -0.280 N 
HETATM    8  N   LIG     1      19.803  39.184  19.418  1.00  0.00     0.003 NA
HETATM    9  N   LIG     1      19.128  39.756  20.415  1.00  0.00    -0.158 NA
HETATM   10  H   LIG     1      19.890  37.240  18.594  1.00  0.00     0.184 HD
ENDROOT
TORSDOF 0
ENDMDL
MODEL 11
REMARK VINA RESULT:      -5.6     10.224     11.302
REMARK  0 active torsions:
REMARK  status: ('A' for Active; 'I' for Inactive)
ROOT
HETATM    1  C   LIG     1      15.473  31.453  15.024  1.00  0.00     0.102 A 
HETATM    2  C   LIG     1      14.693  30.455  14.447  1.00  0.00     0.035 A 
HETATM    3  C   LIG     1      13.466  30.152  15.070  1.00  0.00     0.002 A 
HETATM    4  C   LIG     1      13.060  30.850  16.236  1.00  0.00     0.002 A 
HETATM    5  C   LIG     1      13.880  31.855  16.788  1.00  0.00     0.033 A 
HETATM    6  C   LIG     1      15.083  32.120  16.141  1.00  0.00     0.076 A 
HETATM    7  N   LIG     1      16.038  33.007  16.441  1.00  0.00    -0.280 N 
HETATM    8  N   LIG     1      16.986  32.872  15.518  1.00  0.00     0.003 NA
HETATM    9  N   LIG     1      16.670  31.927  14.633  1.00  0.00    -0.158 NA
HETATM   10  H   LIG     1      16.060  33.682  17.237  1.00  0.00     0.184 HD
ENDROOT
TORSDOF 0
ENDMDL
MODEL 12
REMARK VINA RESULT:      -5.5     11.015     12.202
REMARK  0 active torsions:
REMARK  status: ('A' for Active; 'I' for Inactive)
ROOT
HETATM    1  C   LIG     1      15.268  31.372  14.983  1.00  0.00     0.102 A 
HETATM    2  C   LIG     1      15.320  32.336  15.986  1.00  0.00     0.035 A 
HETATM    3  C   LIG     1      14.241  32.386  16.891  1.00  0.00     0.002 A 
HETATM    4  C   LIG     1      13.157  31.482  16.768  1.00  0.00     0.002 A 
HETATM    5  C   LIG     1      13.142  30.521  15.737  1.00  0.00     0.033 A 
HETATM    6  C   LIG     1      14.227  30.507  14.867  1.00  0.00     0.076 A 
HETATM    7  N   LIG     1      14.471  29.715  13.816  1.00  0.00    -0.280 N 
HETATM    8  N   LIG     1      15.640  30.102  13.311  1.00  0.00     0.003 NA
HETATM    9  N   LIG     1      16.155  31.117  14.005  1.00  0.00    -0.158 NA
HETATM   10  H   LIG     1      13.878  28.941  13.444  1.00  0.00     0.184 HD
ENDROOT
TORSDOF 0
ENDMDL
MODEL 13
REMARK VINA RESULT:      -5.5      2.235      3.601
REMARK  0 active torsions:
REMARK  status: ('A' for Active; 'I' for Inactive)
ROOT
HETATM    1  C   LIG     1      17.591  36.928  25.165  1.00  0.00     0.102 A 
HETATM    2  C   LIG     1      17.583  38.251  24.734  1.00  0.00     0.035 A 
HETATM    3  C   LIG     1      17.203  38.493  23.398  1.00  0.00     0.002 A 
HETATM    4  C   LIG     1      16.846  37.418  22.546  1.00  0.00     0.002 A 
HETATM    5  C   LIG     1      16.867  36.092  23.023  1.00  0.00     0.033 A 
HETATM    6  C   LIG     1      17.249  35.899  24.347  1.00  0.00     0.076 A 
HETATM    7  N   LIG     1      17.356  34.766  25.050  1.00  0.00    -0.280 N 
HETATM    8  N   LIG     1      17.757  35.112  26.271  1.00  0.00     0.003 NA
HETATM    9  N   LIG     1      17.910  36.432  26.374  1.00  0.00    -0.158 NA
HETATM   10  H   LIG     1      17.170  33.791  24.728  1.00  0.00     0.184 HD
ENDROOT
TORSDOF 0
ENDMDL
MODEL 14
REMARK VINA RESULT:      -5.4      3.439      4.066
REMARK  0 active torsions:
REMARK  status: ('A' for Active; 'I' for Inactive)
ROOT
HETATM    1  C   LIG     1      16.990  37.430  22.008  1.00  0.00     0.102 A 
HETATM    2  C   LIG     1      17.624  36.626  21.065  1.00  0.00     0.035 A 
HETATM    3  C   LIG     1      16.859  35.600  20.473  1.00  0.00     0.002 A 
HETATM    4  C   LIG     1      15.503  35.414  20.837  1.00  0.00     0.002 A 
HETATM    5  C   LIG     1      14.899  36.251  21.796  1.00  0.00     0.033 A 
HETATM    6  C   LIG     1      15.690  37.250  22.355  1.00  0.00     0.076 A 
HETATM    7  N   LIG     1      15.381  38.172  23.275  1.00  0.00    -0.280 N 
HETATM    8  N   LIG     1      16.482  38.893  23.474  1.00  0.00     0.003 NA
HETATM    9  N   LIG     1      17.487  38.463  22.712  1.00  0.00    -0.158 NA
HETATM   10  H   LIG     1      14.467  38.317  23.756  1.00  0.00     0.184 HD
ENDROOT
TORSDOF 0
ENDMDL
MODEL 15
REMARK VINA RESULT:      -5.4     10.843     12.021
REMARK  0 active torsions:
REMARK  status: ('A' for Active; 'I' for Inactive)
ROOT
HETATM    1  C   LIG     1      14.401  31.618  15.903  1.00  0.00     0.102 A 
HETATM    2  C   LIG     1      15.568  31.987  15.243  1.00  0.00     0.035 A 
HETATM    3  C   LIG     1      15.961  31.206  14.137  1.00  0.00     0.002 A 
HETATM    4  C   LIG     1      15.182  30.093  13.731  1.00  0.00     0.002 A 
HETATM    5  C   LIG     1      14.005  29.753  14.428  1.00  0.00     0.033 A 
HETATM    6  C   LIG     1      13.656  30.551  15.513  1.00  0.00     0.076 A 
HETATM    7  N   LIG     1      12.608  30.460  16.340  1.00  0.00    -0.280 N 
HETATM    8  N   LIG     1      12.725  31.457  17.213  1.00  0.00     0.003 NA
HETATM    9  N   LIG     1      13.815  32.187  16.972  1.00  0.00    -0.158 NA
HETATM   10  H   LIG     1      11.839  29.756  16.326  1.00  0.00     0.184 HD
ENDROOT
TORSDOF 0
ENDMDL
MODEL 16
REMARK VINA RESULT:      -5.3     10.353     11.481
REMARK  0 active torsions:
REMARK  status: ('A' for Active; 'I' for Inactive)
ROOT
HETATM    1  C   LIG     1      14.178  30.893  15.814  1.00  0.00     0.102 A 
HETATM    2  C   LIG     1      14.255  30.192  14.614  1.00  0.00     0.035 A 
HETATM    3  C   LIG     1      15.188  30.645  13.659  1.00  0.00     0.002 A 
HETATM    4  C   LIG     1      16.004  31.771  13.931  1.00  0.00     0.002 A 
HETATM    5  C   LIG     1      15.895  32.454  15.159  1.00  0.00     0.033 A 
HETATM    6  C   LIG     1      14.961  31.972  16.072  1.00  0.00     0.076 A 
HETATM    7  N   LIG     1      14.651  32.419  17.295  1.00  0.00    -0.280 N 
HETATM    8  N   LIG     1      13.695  31.619  17.760  1.00  0.00     0.003 NA
HETATM    9  N   LIG     1      13.382  30.672  16.876  1.00  0.00    -0.158 NA
HETATM   10  H   LIG     1      15.061  33.232  17.804  1.00  0.00     0.184 HD
ENDROOT
TORSDOF 0
ENDMDL
MODEL 17
REMARK VINA RESULT:      -5.2     10.252     11.291
REMARK  0 active torsions:
REMARK  status: ('A' for Active; 'I' for Inactive)
ROOT
HETATM    1  C   LIG     1      14.129  31.300  16.336  1.00  0.00     0.102 A 
HETATM    2  C   LIG     1      13.477  30.330  15.582  1.00  0.00     0.035 A 
HETATM    3  C   LIG     1      14.029  30.007  14.326  1.00  0.00     0.002 A 
HETATM    4  C   LIG     1      15.202  30.658  13.869  1.00  0.00     0.002 A 
HETATM    5  C   LIG     1      15.833  31.636  14.664  1.00  0.00     0.033 A 
HETATM    6  C   LIG     1      15.253  31.922  15.896  1.00  0.00     0.076 A 
HETATM    7  N   LIG     1      15.634  32.792  16.839  1.00  0.00    -0.280 N 
HETATM    8  N   LIG     1      14.750  32.692  17.828  1.00  0.00     0.003 NA
HETATM    9  N   LIG     1      13.813  31.785  17.551  1.00  0.00    -0.158 NA
HETATM   10  H   LIG     1      16.456  33.434  16.825  1.00  0.00     0.184 HD
ENDROOT
TORSDOF 0
ENDMDL
MODEL 18
REMARK VINA RESULT:      -4.9     10.117     11.282
REMARK  0 active torsions:
REMARK  status: ('A' for Active; 'I' for Inactive)
ROOT
HETATM    1  C   LIG     1      16.529  32.932  14.098  1.00  0.00     0.102 A 
HETATM    2  C   LIG     1      16.040  31.790  13.472  1.00  0.00     0.035 A 
HETATM    3  C   LIG     1      15.203  30.945  14.229  1.00  0.00     0.002 A 
HETATM    4  C   LIG     1      14.886  31.266  15.573  1.00  0.00     0.002 A 
HETATM    5  C   LIG     1      15.403  32.433  16.170  1.00  0.00     0.033 A 
HETATM    6  C   LIG     1      16.224  33.237  15.385  1.00  0.00     0.076 A 
HETATM    7  N   LIG     1      16.842  34.384  15.690  1.00  0.00    -0.280 N 
HETATM    8  N   LIG     1      17.508  34.759  14.601  1.00  0.00     0.003 NA
HETATM    9  N   LIG     1      17.336  33.889  13.606  1.00  0.00    -0.158 NA
HETATM   10  H   LIG     1      16.823  34.902  16.596  1.00  0.00     0.184 HD
ENDROOT
TORSDOF 0
ENDMDL
MODEL 19
REMARK VINA RESULT:      -4.6      6.992      8.130
REMARK  0 active torsions:
REMARK  status: ('A' for Active; 'I' for Inactive)
ROOT
HETATM    1  C   LIG     1      14.983  32.873  17.645  1.00  0.00     0.102 A 
HETATM    2  C   LIG     1      14.534  31.642  18.114  1.00  0.00     0.035 A 
HETATM    3  C   LIG     1      14.572  31.428  19.507  1.00  0.00     0.002 A 
HETATM    4  C   LIG     1      15.051  32.439  20.376  1.00  0.00     0.002 A 
HETATM    5  C   LIG     1      15.496  33.673  19.860  1.00  0.00     0.033 A 
HETATM    6  C   LIG     1      15.441  33.841  18.480  1.00  0.00     0.076 A 
HETATM    7  N   LIG     1      15.794  34.892  17.731  1.00  0.00    -0.280 N 
HETATM    8  N   LIG     1      15.551  34.557  16.467  1.00  0.00     0.003 NA
HETATM    9  N   LIG     1      15.052  33.324  16.380  1.00  0.00    -0.158 NA
HETATM   10  H   LIG     1      16.186  35.804  18.051  1.00  0.00     0.184 HD
ENDROOT
TORSDOF 0
ENDMDL
MODEL 20
REMARK VINA RESULT:      -4.5     12.981     13.748
REMARK  0 active torsions:
REMARK  status: ('A' for Active; 'I' for Inactive)
ROOT
HETATM    1  C   LIG     1      14.801  29.156  14.106  1.00  0.00     0.102 A 
HETATM    2  C   LIG     1      15.674  30.190  14.431  1.00  0.00     0.035 A 
HETATM    3  C   LIG     1      15.152  31.268  15.174  1.00  0.00     0.002 A 
HETATM    4  C   LIG     1      13.790  31.278  15.565  1.00  0.00     0.002 A 
HETATM    5  C   LIG     1      12.939  30.210  15.215  1.00  0.00     0.033 A 
HETATM    6  C   LIG     1      13.496  29.168  14.481  1.00  0.00     0.076 A 
HETATM    7  N   LIG     1      12.929  28.046  14.021  1.00  0.00    -0.280 N 
HETATM    8  N   LIG     1      13.881  27.375  13.379  1.00  0.00     0.003 NA
HETATM    9  N   LIG     1      15.042  28.029  13.413  1.00  0.00    -0.158 NA
HETATM   10  H   LIG     1      11.939  27.738  14.129  1.00  0.00     0.184 HD
ENDROOT
TORSDOF 0
ENDMDL
