REMARK  0 active torsions:
REMARK  status: ('A' for Active; 'I' for Inactive)
ROOT
HETATM    1  C   LIG     1      -0.765   0.774   0.014  1.00  0.00     0.102 A 
HETATM    2  C   LIG     1       0.356   1.595   0.087  1.00  0.00     0.035 A 
HETATM    3  C   LIG     1       1.618   0.967   0.095  1.00  0.00     0.002 A 
HETATM    4  C   LIG     1       1.718  -0.445   0.030  1.00  0.00     0.002 A 
HETATM    5  C   LIG     1       0.557  -1.241  -0.043  1.00  0.00     0.033 A 
HETATM    6  C   LIG     1      -0.667  -0.579  -0.048  1.00  0.00     0.076 A 
HETATM    7  N   LIG     1      -1.908  -1.076  -0.109  1.00  0.00    -0.280 N 
HETATM    8  N   LIG     1      -2.736  -0.035  -0.083  1.00  0.00     0.003 NA
HETATM    9  N   LIG     1      -2.066   1.115  -0.008  1.00  0.00    -0.158 NA
HETATM   10  H   LIG     1      -2.196  -2.077  -0.165  1.00  0.00     0.184 HD
ENDROOT
TORSDOF 0
