REMARK  1 active torsions:
REMARK  status: ('A' for Active; 'I' for Inactive)
REMARK    1  A    between atoms: O_1  and  C_2 
ROOT
HETATM    1  C   LIG     1      -0.180   0.980  -0.349  1.00  0.00     0.071 A 
HETATM    2  C   LIG     1      -1.558   0.795  -0.519  1.00  0.00     0.037 A 
HETATM    3  C   LIG     1      -2.150  -0.433  -0.218  1.00  0.00     0.003 A 
HETATM    4  C   LIG     1      -1.369  -1.488   0.256  1.00  0.00     0.001 A 
HETATM    5  C   LIG     1       0.007  -1.318   0.430  1.00  0.00     0.009 A 
HETATM    6  C   LIG     1       0.617  -0.086   0.131  1.00  0.00    -0.029 A 
HETATM    7  C   LIG     1       2.099   0.075   0.326  1.00  0.00     0.051 C 
ENDROOT
BRANCH   1   8
HETATM    8  O   LIG     1       0.365   2.227  -0.664  1.00  0.00    -0.360 OA
HETATM    9  H   LIG     1       1.350   2.438  -0.569  1.00  0.00     0.217 HD
ENDBRANCH   1   8
TORSDOF 1
