REMARK  0 active torsions:
REMARK  status: ('A' for Active; 'I' for Inactive)
ROOT
HETATM    1  C   LIG     1       2.082  -0.111   0.445  1.00  0.00     0.049 C 
HETATM    2  C   LIG     1       0.614  -0.363   0.223  1.00  0.00    -0.056 A 
HETATM    3  C   LIG     1      -0.248   0.665  -0.234  1.00  0.00    -0.056 A 
HETATM    4  C   LIG     1       0.269   2.051  -0.514  1.00  0.00     0.049 C 
HETATM    5  C   LIG     1      -1.613   0.385  -0.427  1.00  0.00     0.007 A 
HETATM    6  C   LIG     1      -2.118  -0.892  -0.174  1.00  0.00     0.001 A 
HETATM    7  C   LIG     1      -1.270  -1.904   0.275  1.00  0.00     0.001 A 
HETATM    8  C   LIG     1       0.088  -1.643   0.473  1.00  0.00     0.007 A 
ENDROOT
TORSDOF 0
