MODEL 1
REMARK VINA RESULT:      -6.3      0.000      0.000
REMARK  0 active torsions:
REMARK  status: ('A' for Active; 'I' for Inactive)
ROOT
HETATM    1  C   LIG     1      16.704  35.251  22.681  1.00  0.00     0.050 C 
HETATM    2  C   LIG     1      17.200  35.738  24.015  1.00  0.00    -0.040 A 
HETATM    3  C   LIG     1      17.512  34.812  25.027  1.00  0.00     0.008 A 
HETATM    4  C   LIG     1      17.974  35.254  26.270  1.00  0.00     0.001 A 
HETATM    5  C   LIG     1      18.128  36.619  26.515  1.00  0.00     0.002 A 
HETATM    6  C   LIG     1      17.822  37.548  25.518  1.00  0.00     0.024 A 
HETATM    7  C   LIG     1      17.358  37.117  24.270  1.00  0.00     0.040 A 
HETATM    8 CL   LIG     1      16.986  38.326  23.046  1.00  0.00    -0.084 Cl
ENDROOT
TORSDOF 0
ENDMDL
MODEL 2
REMARK VINA RESULT:      -6.2      1.273      2.315
REMARK  0 active torsions:
REMARK  status: ('A' for Active; 'I' for Inactive)
ROOT
HETATM    1  C   LIG     1      16.925  38.149  23.292  1.00  0.00     0.050 C 
HETATM    2  C   LIG     1      17.309  37.133  24.332  1.00  0.00    -0.040 A 
HETATM    3  C   LIG     1      17.819  37.557  25.571  1.00  0.00     0.008 A 
HETATM    4  C   LIG     1      18.179  36.622  26.545  1.00  0.00     0.001 A 
HETATM    5  C   LIG     1      18.034  35.257  26.293  1.00  0.00     0.002 A 
HETATM    6  C   LIG     1      17.528  34.822  25.065  1.00  0.00     0.024 A 
HETATM    7  C   LIG     1      17.165  35.751  24.083  1.00  0.00     0.040 A 
HETATM    8 CL   LIG     1      16.533  35.154  22.552  1.00  0.00    -0.084 Cl
ENDROOT
TORSDOF 0
ENDMDL
MODEL 3
REMARK VINA RESULT:      -5.9      3.756      5.268
REMARK  0 active torsions:
REMARK  status: ('A' for Active; 'I' for Inactive)
ROOT
HETATM    1  C   LIG     1      16.779  38.286  22.727  1.00  0.00     0.050 C 
HETATM    2  C   LIG     1      17.747  38.161  21.583  1.00  0.00    -0.040 A 
HETATM    3  C   LIG     1      18.533  39.264  21.207  1.00  0.00     0.008 A 
HETATM    4  C   LIG     1      19.436  39.159  20.146  1.00  0.00     0.001 A 
HETATM    5  C   LIG     1      19.564  37.955  19.451  1.00  0.00     0.002 A 
HETATM    6  C   LIG     1      18.789  36.852  19.816  1.00  0.00     0.024 A 
HETATM    7  C   LIG     1      17.881  36.946  20.877  1.00  0.00     0.040 A 
HETATM    8 CL   LIG     1      16.927  35.528  21.298  1.00  0.00    -0.084 Cl
ENDROOT
TORSDOF 0
ENDMDL
MODEL 4
REMARK VINA RESULT:      -5.9      3.576      4.802
REMARK  0 active torsions:
REMARK  status: ('A' for Active; 'I' for Inactive)
ROOT
HETATM    1  C   LIG     1      17.084  35.770  21.301  1.00  0.00     0.050 C 
HETATM    2  C   LIG     1      17.910  36.958  20.889  1.00  0.00    -0.040 A 
HETATM    3  C   LIG     1      18.812  36.846  19.816  1.00  0.00     0.008 A 
HETATM    4  C   LIG     1      19.584  37.943  19.425  1.00  0.00     0.001 A 
HETATM    5  C   LIG     1      19.464  39.160  20.099  1.00  0.00     0.002 A 
HETATM    6  C   LIG     1      18.572  39.284  21.166  1.00  0.00     0.024 A 
HETATM    7  C   LIG     1      17.794  38.190  21.566  1.00  0.00     0.040 A 
HETATM    8 CL   LIG     1      16.683  38.396  22.916  1.00  0.00    -0.084 Cl
ENDROOT
TORSDOF 0
ENDMDL
MODEL 5
REMARK VINA RESULT:      -5.9      1.433      2.988
REMARK  0 active torsions:
REMARK  status: ('A' for Active; 'I' for Inactive)
ROOT
HETATM    1  C   LIG     1      17.350  34.887  25.511  1.00  0.00     0.050 C 
HETATM    2  C   LIG     1      17.202  35.707  24.259  1.00  0.00    -0.040 A 
HETATM    3  C   LIG     1      17.054  35.067  23.016  1.00  0.00     0.008 A 
HETATM    4  C   LIG     1      16.916  35.819  21.846  1.00  0.00     0.001 A 
HETATM    5  C   LIG     1      16.923  37.213  21.905  1.00  0.00     0.002 A 
HETATM    6  C   LIG     1      17.069  37.861  23.134  1.00  0.00     0.024 A 
HETATM    7  C   LIG     1      17.209  37.117  24.312  1.00  0.00     0.040 A 
HETATM    8 CL   LIG     1      17.389  37.978  25.836  1.00  0.00    -0.084 Cl
ENDROOT
TORSDOF 0
ENDMDL
MODEL 6
REMARK VINA RESULT:      -5.8      1.924      3.755
REMARK  0 active torsions:
REMARK  status: ('A' for Active; 'I' for Inactive)
ROOT
HETATM    1  C   LIG     1      17.483  37.892  25.723  1.00  0.00     0.050 C 
HETATM    2  C   LIG     1      17.285  37.192  24.407  1.00  0.00    -0.040 A 
HETATM    3  C   LIG     1      17.190  37.943  23.221  1.00  0.00     0.008 A 
HETATM    4  C   LIG     1      17.006  37.303  21.993  1.00  0.00     0.001 A 
HETATM    5  C   LIG     1      16.914  35.911  21.934  1.00  0.00     0.002 A 
HETATM    6  C   LIG     1      17.006  35.155  23.104  1.00  0.00     0.024 A 
HETATM    7  C   LIG     1      17.191  35.786  24.341  1.00  0.00     0.040 A 
HETATM    8 CL   LIG     1      17.301  34.788  25.787  1.00  0.00    -0.084 Cl
ENDROOT
TORSDOF 0
ENDMDL
MODEL 7
REMARK VINA RESULT:      -5.6      3.119      3.885
REMARK  0 active torsions:
REMARK  status: ('A' for Active; 'I' for Inactive)
ROOT
HETATM    1  C   LIG     1      19.059  36.812  19.470  1.00  0.00     0.050 C 
HETATM    2  C   LIG     1      18.128  37.047  20.627  1.00  0.00    -0.040 A 
HETATM    3  C   LIG     1      17.335  35.993  21.113  1.00  0.00     0.008 A 
HETATM    4  C   LIG     1      16.466  36.199  22.188  1.00  0.00     0.001 A 
HETATM    5  C   LIG     1      16.381  37.457  22.789  1.00  0.00     0.002 A 
HETATM    6  C   LIG     1      17.164  38.512  22.315  1.00  0.00     0.024 A 
HETATM    7  C   LIG     1      18.037  38.316  21.238  1.00  0.00     0.040 A 
HETATM    8 CL   LIG     1      19.003  39.676  20.678  1.00  0.00    -0.084 Cl
ENDROOT
TORSDOF 0
ENDMDL
MODEL 8
REMARK VINA RESULT:      -5.5      1.678      3.217
REMARK  0 active torsions:
REMARK  status: ('A' for Active; 'I' for Inactive)
ROOT
HETATM    1  C   LIG     1      17.196  39.171  22.429  1.00  0.00     0.050 C 
HETATM    2  C   LIG     1      17.146  37.694  22.706  1.00  0.00    -0.040 A 
HETATM    3  C   LIG     1      17.056  36.784  21.638  1.00  0.00     0.008 A 
HETATM    4  C   LIG     1      17.009  35.409  21.884  1.00  0.00     0.001 A 
HETATM    5  C   LIG     1      17.052  34.930  23.195  1.00  0.00     0.002 A 
HETATM    6  C   LIG     1      17.142  35.824  24.264  1.00  0.00     0.024 A 
HETATM    7  C   LIG     1      17.189  37.203  24.028  1.00  0.00     0.040 A 
HETATM    8 CL   LIG     1      17.303  38.290  25.408  1.00  0.00    -0.084 Cl
ENDROOT
TORSDOF 0
ENDMDL
MODEL 9
REMARK VINA RESULT:      -5.5      3.548      4.130
REMARK  0 active torsions:
REMARK  status: ('A' for Active; 'I' for Inactive)
ROOT
HETATM    1  C   LIG     1      16.897  35.413  21.075  1.00  0.00     0.050 C 
HETATM    2  C   LIG     1      17.276  36.829  21.412  1.00  0.00    -0.040 A 
HETATM    3  C   LIG     1      16.579  37.520  22.419  1.00  0.00     0.008 A 
HETATM    4  C   LIG     1      16.923  38.836  22.740  1.00  0.00     0.001 A 
HETATM    5  C   LIG     1      17.963  39.474  22.062  1.00  0.00     0.002 A 
HETATM    6  C   LIG     1      18.663  38.798  21.060  1.00  0.00     0.024 A 
HETATM    7  C   LIG     1      18.327  37.480  20.730  1.00  0.00     0.040 A 
HETATM    8 CL   LIG     1      19.238  36.670  19.461  1.00  0.00    -0.084 Cl
ENDROOT
TORSDOF 0
ENDMDL
MODEL 10
REMARK VINA RESULT:      -5.5      1.622      2.845
REMARK  0 active torsions:
REMARK  status: ('A' for Active; 'I' for Inactive)
ROOT
HETATM    1  C   LIG     1      17.509  34.818  25.580  1.00  0.00     0.050 C 
HETATM    2  C   LIG     1      17.395  36.154  24.899  1.00  0.00    -0.040 A 
HETATM    3  C   LIG     1      17.539  37.336  25.646  1.00  0.00     0.008 A 
HETATM    4  C   LIG     1      17.435  38.583  25.023  1.00  0.00     0.001 A 
HETATM    5  C   LIG     1      17.186  38.662  23.651  1.00  0.00     0.002 A 
HETATM    6  C   LIG     1      17.041  37.494  22.899  1.00  0.00     0.024 A 
HETATM    7  C   LIG     1      17.143  36.240  23.513  1.00  0.00     0.040 A 
HETATM    8 CL   LIG     1      16.953  34.799  22.522  1.00  0.00    -0.084 Cl
ENDROOT
TORSDOF 0
ENDMDL
MODEL 11
REMARK VINA RESULT:      -5.4      1.143      2.788
REMARK  0 active torsions:
REMARK  status: ('A' for Active; 'I' for Inactive)
ROOT
HETATM    1  C   LIG     1      17.399  38.291  25.572  1.00  0.00     0.050 C 
HETATM    2  C   LIG     1      17.240  37.224  24.524  1.00  0.00    -0.040 A 
HETATM    3  C   LIG     1      17.301  35.867  24.890  1.00  0.00     0.008 A 
HETATM    4  C   LIG     1      17.155  34.868  23.924  1.00  0.00     0.001 A 
HETATM    5  C   LIG     1      16.946  35.211  22.587  1.00  0.00     0.002 A 
HETATM    6  C   LIG     1      16.883  36.554  22.211  1.00  0.00     0.024 A 
HETATM    7  C   LIG     1      17.029  37.564  23.171  1.00  0.00     0.040 A 
HETATM    8 CL   LIG     1      16.942  39.242  22.648  1.00  0.00    -0.084 Cl
ENDROOT
TORSDOF 0
ENDMDL
MODEL 12
REMARK VINA RESULT:      -5.2      9.661     10.938
REMARK  0 active torsions:
REMARK  status: ('A' for Active; 'I' for Inactive)
ROOT
HETATM    1  C   LIG     1      15.395  30.195  13.554  1.00  0.00     0.050 C 
HETATM    2  C   LIG     1      14.761  30.811  14.771  1.00  0.00    -0.040 A 
HETATM    3  C   LIG     1      13.526  30.328  15.238  1.00  0.00     0.008 A 
HETATM    4  C   LIG     1      12.927  30.893  16.367  1.00  0.00     0.001 A 
HETATM    5  C   LIG     1      13.555  31.942  17.042  1.00  0.00     0.002 A 
HETATM    6  C   LIG     1      14.783  32.430  16.588  1.00  0.00     0.024 A 
HETATM    7  C   LIG     1      15.390  31.871  15.457  1.00  0.00     0.040 A 
HETATM    8 CL   LIG     1      16.937  32.521  14.925  1.00  0.00    -0.084 Cl
ENDROOT
TORSDOF 0
ENDMDL
MODEL 13
REMARK VINA RESULT:      -5.1     10.059     11.169
REMARK  0 active torsions:
REMARK  status: ('A' for Active; 'I' for Inactive)
ROOT
HETATM    1  C   LIG     1      16.712  32.333  15.089  1.00  0.00     0.050 C 
HETATM    2  C   LIG     1      15.361  31.832  15.521  1.00  0.00    -0.040 A 
HETATM    3  C   LIG     1      14.719  32.415  16.628  1.00  0.00     0.008 A 
HETATM    4  C   LIG     1      13.463  31.958  17.038  1.00  0.00     0.001 A 
HETATM    5  C   LIG     1      12.838  30.917  16.349  1.00  0.00     0.002 A 
HETATM    6  C   LIG     1      13.465  30.330  15.248  1.00  0.00     0.024 A 
HETATM    7  C   LIG     1      14.723  30.780  14.829  1.00  0.00     0.040 A 
HETATM    8 CL   LIG     1      15.473  30.009  13.436  1.00  0.00    -0.084 Cl
ENDROOT
TORSDOF 0
ENDMDL
MODEL 14
REMARK VINA RESULT:      -5.1      9.363     10.440
REMARK  0 active torsions:
REMARK  status: ('A' for Active; 'I' for Inactive)
ROOT
HETATM    1  C   LIG     1      16.799  32.890  15.040  1.00  0.00     0.050 C 
HETATM    2  C   LIG     1      15.546  32.164  15.446  1.00  0.00    -0.040 A 
HETATM    3  C   LIG     1      15.165  30.992  14.768  1.00  0.00     0.008 A 
HETATM    4  C   LIG     1      14.003  30.309  15.137  1.00  0.00     0.001 A 
HETATM    5  C   LIG     1      13.212  30.787  16.184  1.00  0.00     0.002 A 
HETATM    6  C   LIG     1      13.580  31.949  16.865  1.00  0.00     0.024 A 
HETATM    7  C   LIG     1      14.742  32.641  16.503  1.00  0.00     0.040 A 
HETATM    8 CL   LIG     1      15.165  34.100  17.392  1.00  0.00    -0.084 Cl
ENDROOT
TORSDOF 0
ENDMDL
MODEL 15
REMARK VINA RESULT:      -4.9     10.104     11.528
REMARK  0 active torsions:
REMARK  status: ('A' for Active; 'I' for Inactive)
ROOT
HETATM    1  C   LIG     1      12.908  31.829  16.893  1.00  0.00     0.050 C 
HETATM    2  C   LIG     1      13.741  31.181  15.822  1.00  0.00    -0.040 A 
HETATM    3  C   LIG     1      13.269  30.027  15.170  1.00  0.00     0.008 A 
HETATM    4  C   LIG     1      14.034  29.417  14.173  1.00  0.00     0.001 A 
HETATM    5  C   LIG     1      15.275  29.950  13.816  1.00  0.00     0.002 A 
HETATM    6  C   LIG     1      15.754  31.095  14.456  1.00  0.00     0.024 A 
HETATM    7  C   LIG     1      14.995  31.714  15.457  1.00  0.00     0.040 A 
HETATM    8 CL   LIG     1      15.642  33.155  16.234  1.00  0.00    -0.084 Cl
ENDROOT
TORSDOF 0
ENDMDL
MODEL 16
REMARK VINA RESULT:      -4.8     10.634     11.782
REMARK  0 active torsions:
REMARK  status: ('A' for Active; 'I' for Inactive)
ROOT
HETATM    1  C   LIG     1      12.981  30.680  16.713  1.00  0.00     0.050 C 
HETATM    2  C   LIG     1      14.084  31.036  15.755  1.00  0.00    -0.040 A 
HETATM    3  C   LIG     1      14.944  32.110  16.044  1.00  0.00     0.008 A 
HETATM    4  C   LIG     1      15.973  32.449  15.161  1.00  0.00     0.001 A 
HETATM    5  C   LIG     1      16.153  31.721  13.983  1.00  0.00     0.002 A 
HETATM    6  C   LIG     1      15.306  30.652  13.685  1.00  0.00     0.024 A 
HETATM    7  C   LIG     1      14.272  30.304  14.563  1.00  0.00     0.040 A 
HETATM    8 CL   LIG     1      13.231  28.949  14.143  1.00  0.00    -0.084 Cl
ENDROOT
TORSDOF 0
ENDMDL
MODEL 17
REMARK VINA RESULT:      -4.7      9.201     11.454
REMARK  0 active torsions:
REMARK  status: ('A' for Active; 'I' for Inactive)
ROOT
HETATM    1  C   LIG     1      14.950  32.958  17.068  1.00  0.00     0.050 C 
HETATM    2  C   LIG     1      15.071  32.122  15.823  1.00  0.00    -0.040 A 
HETATM    3  C   LIG     1      16.033  32.448  14.851  1.00  0.00     0.008 A 
HETATM    4  C   LIG     1      16.155  31.678  13.691  1.00  0.00     0.001 A 
HETATM    5  C   LIG     1      15.320  30.578  13.490  1.00  0.00     0.002 A 
HETATM    6  C   LIG     1      14.360  30.244  14.449  1.00  0.00     0.024 A 
HETATM    7  C   LIG     1      14.230  31.009  15.614  1.00  0.00     0.040 A 
HETATM    8 CL   LIG     1      13.006  30.547  16.792  1.00  0.00    -0.084 Cl
ENDROOT
TORSDOF 0
ENDMDL
MODEL 18
REMARK VINA RESULT:      -4.6      9.589     10.862
REMARK  0 active torsions:
REMARK  status: ('A' for Active; 'I' for Inactive)
ROOT
HETATM    1  C   LIG     1      14.632  29.726  14.062  1.00  0.00     0.050 C 
HETATM    2  C   LIG     1      14.970  30.951  14.865  1.00  0.00    -0.040 A 
HETATM    3  C   LIG     1      16.104  31.714  14.535  1.00  0.00     0.008 A 
HETATM    4  C   LIG     1      16.428  32.855  15.274  1.00  0.00     0.001 A 
HETATM    5  C   LIG     1      15.626  33.245  16.348  1.00  0.00     0.002 A 
HETATM    6  C   LIG     1      14.497  32.495  16.686  1.00  0.00     0.024 A 
HETATM    7  C   LIG     1      14.164  31.350  15.952  1.00  0.00     0.040 A 
HETATM    8 CL   LIG     1      12.731  30.439  16.417  1.00  0.00    -0.084 Cl
ENDROOT
TORSDOF 0
ENDMDL
MODEL 19
REMARK VINA RESULT:      -4.3      9.788     10.957
REMARK  0 active torsions:
REMARK  status: ('A' for Active; 'I' for Inactive)
ROOT
HETATM    1  C   LIG     1      13.998  30.507  15.500  1.00  0.00     0.050 C 
HETATM    2  C   LIG     1      15.093  31.424  15.031  1.00  0.00    -0.040 A 
HETATM    3  C   LIG     1      15.549  31.350  13.703  1.00  0.00     0.008 A 
HETATM    4  C   LIG     1      16.566  32.197  13.256  1.00  0.00     0.001 A 
HETATM    5  C   LIG     1      17.138  33.125  14.128  1.00  0.00     0.002 A 
HETATM    6  C   LIG     1      16.694  33.209  15.450  1.00  0.00     0.024 A 
HETATM    7  C   LIG     1      15.675  32.364  15.908  1.00  0.00     0.040 A 
HETATM    8 CL   LIG     1      15.151  32.508  17.581  1.00  0.00    -0.084 Cl
ENDROOT
TORSDOF 0
ENDMDL
MODEL 20
REMARK VINA RESULT:      -3.9     13.023     13.281
REMARK  0 active torsions:
REMARK  status: ('A' for Active; 'I' for Inactive)
ROOT
HETATM    1  C   LIG     1      27.041  38.103  18.086  1.00  0.00     0.050 C 
HETATM    2  C   LIG     1      28.221  38.620  18.863  1.00  0.00    -0.040 A 
HETATM    3  C   LIG     1      28.080  38.930  20.227  1.00  0.00     0.008 A 
HETATM    4  C   LIG     1      29.170  39.410  20.958  1.00  0.00     0.001 A 
HETATM    5  C   LIG     1      30.408  39.586  20.337  1.00  0.00     0.002 A 
HETATM    6  C   LIG     1      30.560  39.280  18.982  1.00  0.00     0.024 A 
HETATM    7  C   LIG     1      29.474  38.799  18.241  1.00  0.00     0.040 A 
HETATM    8 CL   LIG     1      29.717  38.429  16.537  1.00  0.00    -0.084 Cl
ENDROOT
TORSDOF 0
ENDMDL
