MODEL 1
REMARK VINA RESULT:      -6.2      0.000      0.000
REMARK  1 active torsions:
REMARK  status: ('A' for Active; 'I' for Inactive)
REMARK    1  A    between atoms: O_1  and  C_2 
ROOT
HETATM    1  C   LIG     1      17.341  37.322  24.812  1.00  0.00     0.071 A 
HETATM    2  C   LIG     1      17.856  37.351  26.114  1.00  0.00     0.037 A 
HETATM    3  C   LIG     1      18.186  36.164  26.771  1.00  0.00     0.003 A 
HETATM    4  C   LIG     1      18.003  34.937  26.131  1.00  0.00     0.001 A 
HETATM    5  C   LIG     1      17.490  34.893  24.832  1.00  0.00     0.009 A 
HETATM    6  C   LIG     1      17.154  36.081  24.158  1.00  0.00    -0.029 A 
HETATM    7  C   LIG     1      16.604  36.011  22.761  1.00  0.00     0.051 C 
ENDROOT
BRANCH   1   8
HETATM    8  O   LIG     1      17.027  38.536  24.197  1.00  0.00    -0.360 OA
HETATM    9  H   LIG     1      17.322  38.772  23.258  1.00  0.00     0.217 HD
ENDBRANCH   1   8
TORSDOF 1
ENDMDL
MODEL 2
REMARK VINA RESULT:      -5.9      0.966      2.732
REMARK  1 active torsions:
REMARK  status: ('A' for Active; 'I' for Inactive)
REMARK    1  A    between atoms: O_1  and  C_2 
ROOT
HETATM    1  C   LIG     1      17.281  37.379  24.855  1.00  0.00     0.071 A 
HETATM    2  C   LIG     1      16.804  37.652  23.566  1.00  0.00     0.037 A 
HETATM    3  C   LIG     1      16.608  36.617  22.650  1.00  0.00     0.003 A 
HETATM    4  C   LIG     1      16.886  35.299  23.014  1.00  0.00     0.001 A 
HETATM    5  C   LIG     1      17.363  35.012  24.296  1.00  0.00     0.009 A 
HETATM    6  C   LIG     1      17.566  36.045  25.230  1.00  0.00    -0.029 A 
HETATM    7  C   LIG     1      18.079  35.714  26.603  1.00  0.00     0.051 C 
ENDROOT
BRANCH   1   8
HETATM    8  O   LIG     1      17.461  38.449  25.735  1.00  0.00    -0.360 OA
HETATM    9  H   LIG     1      18.358  38.684  26.141  1.00  0.00     0.217 HD
ENDBRANCH   1   8
TORSDOF 1
ENDMDL
MODEL 3
REMARK VINA RESULT:      -5.8      1.453      2.268
REMARK  1 active torsions:
REMARK  status: ('A' for Active; 'I' for Inactive)
REMARK    1  A    between atoms: O_1  and  C_2 
ROOT
HETATM    1  C   LIG     1      17.169  35.735  24.126  1.00  0.00     0.071 A 
HETATM    2  C   LIG     1      17.539  34.818  25.118  1.00  0.00     0.037 A 
HETATM    3  C   LIG     1      18.064  35.264  26.333  1.00  0.00     0.003 A 
HETATM    4  C   LIG     1      18.225  36.631  26.566  1.00  0.00     0.001 A 
HETATM    5  C   LIG     1      17.860  37.556  25.584  1.00  0.00     0.009 A 
HETATM    6  C   LIG     1      17.329  37.121  24.356  1.00  0.00    -0.029 A 
HETATM    7  C   LIG     1      16.943  38.134  23.314  1.00  0.00     0.051 C 
ENDROOT
BRANCH   1   8
HETATM    8  O   LIG     1      16.648  35.239  22.928  1.00  0.00    -0.360 OA
HETATM    9  H   LIG     1      15.968  34.490  22.890  1.00  0.00     0.217 HD
ENDBRANCH   1   8
TORSDOF 1
ENDMDL
MODEL 4
REMARK VINA RESULT:      -5.8      1.348      2.138
REMARK  1 active torsions:
REMARK  status: ('A' for Active; 'I' for Inactive)
REMARK    1  A    between atoms: O_1  and  C_2 
ROOT
HETATM    1  C   LIG     1      17.210  37.501  24.773  1.00  0.00     0.071 A 
HETATM    2  C   LIG     1      17.420  36.272  25.412  1.00  0.00     0.037 A 
HETATM    3  C   LIG     1      17.346  35.078  24.692  1.00  0.00     0.003 A 
HETATM    4  C   LIG     1      17.061  35.102  23.326  1.00  0.00     0.001 A 
HETATM    5  C   LIG     1      16.849  36.320  22.676  1.00  0.00     0.009 A 
HETATM    6  C   LIG     1      16.921  37.531  23.389  1.00  0.00    -0.029 A 
HETATM    7  C   LIG     1      16.689  38.831  22.669  1.00  0.00     0.051 C 
ENDROOT
BRANCH   1   8
HETATM    8  O   LIG     1      17.295  38.667  25.537  1.00  0.00    -0.360 OA
HETATM    9  H   LIG     1      16.545  39.344  25.595  1.00  0.00     0.217 HD
ENDBRANCH   1   8
TORSDOF 1
ENDMDL
MODEL 5
REMARK VINA RESULT:      -5.6      3.857      5.494
REMARK  1 active torsions:
REMARK  status: ('A' for Active; 'I' for Inactive)
REMARK    1  A    between atoms: O_1  and  C_2 
ROOT
HETATM    1  C   LIG     1      17.957  36.802  20.475  1.00  0.00     0.071 A 
HETATM    2  C   LIG     1      18.963  36.986  19.518  1.00  0.00     0.037 A 
HETATM    3  C   LIG     1      19.719  38.159  19.503  1.00  0.00     0.003 A 
HETATM    4  C   LIG     1      19.476  39.160  20.445  1.00  0.00     0.001 A 
HETATM    5  C   LIG     1      18.476  38.989  21.406  1.00  0.00     0.009 A 
HETATM    6  C   LIG     1      17.706  37.812  21.433  1.00  0.00    -0.029 A 
HETATM    7  C   LIG     1      16.634  37.650  22.475  1.00  0.00     0.051 C 
ENDROOT
BRANCH   1   8
HETATM    8  O   LIG     1      17.227  35.610  20.448  1.00  0.00    -0.360 OA
HETATM    9  H   LIG     1      16.216  35.583  20.461  1.00  0.00     0.217 HD
ENDBRANCH   1   8
TORSDOF 1
ENDMDL
MODEL 6
REMARK VINA RESULT:      -5.5      3.494      4.240
REMARK  1 active torsions:
REMARK  status: ('A' for Active; 'I' for Inactive)
REMARK    1  A    between atoms: O_1  and  C_2 
ROOT
HETATM    1  C   LIG     1      18.251  38.617  21.242  1.00  0.00     0.071 A 
HETATM    2  C   LIG     1      17.341  38.863  22.278  1.00  0.00     0.037 A 
HETATM    3  C   LIG     1      16.458  37.865  22.696  1.00  0.00     0.003 A 
HETATM    4  C   LIG     1      16.476  36.613  22.081  1.00  0.00     0.001 A 
HETATM    5  C   LIG     1      17.379  36.354  21.046  1.00  0.00     0.009 A 
HETATM    6  C   LIG     1      18.274  37.349  20.615  1.00  0.00    -0.029 A 
HETATM    7  C   LIG     1      19.237  37.049  19.499  1.00  0.00     0.051 C 
ENDROOT
BRANCH   1   8
HETATM    8  O   LIG     1      19.114  39.647  20.861  1.00  0.00    -0.360 OA
HETATM    9  H   LIG     1      19.979  39.850  21.346  1.00  0.00     0.217 HD
ENDBRANCH   1   8
TORSDOF 1
ENDMDL
MODEL 7
REMARK VINA RESULT:      -5.5      3.469      4.916
REMARK  1 active torsions:
REMARK  status: ('A' for Active; 'I' for Inactive)
REMARK    1  A    between atoms: O_1  and  C_2 
ROOT
HETATM    1  C   LIG     1      17.870  38.605  21.606  1.00  0.00     0.071 A 
HETATM    2  C   LIG     1      18.813  39.369  20.907  1.00  0.00     0.037 A 
HETATM    3  C   LIG     1      19.528  38.813  19.845  1.00  0.00     0.003 A 
HETATM    4  C   LIG     1      19.307  37.487  19.472  1.00  0.00     0.001 A 
HETATM    5  C   LIG     1      18.369  36.712  20.161  1.00  0.00     0.009 A 
HETATM    6  C   LIG     1      17.641  37.260  21.233  1.00  0.00    -0.029 A 
HETATM    7  C   LIG     1      16.637  36.409  21.959  1.00  0.00     0.051 C 
ENDROOT
BRANCH   1   8
HETATM    8  O   LIG     1      17.180  39.207  22.661  1.00  0.00    -0.360 OA
HETATM    9  H   LIG     1      16.508  38.713  23.233  1.00  0.00     0.217 HD
ENDBRANCH   1   8
TORSDOF 1
ENDMDL
MODEL 8
REMARK VINA RESULT:      -5.5      4.018      5.281
REMARK  1 active torsions:
REMARK  status: ('A' for Active; 'I' for Inactive)
REMARK    1  A    between atoms: O_1  and  C_2 
ROOT
HETATM    1  C   LIG     1      18.455  37.224  20.223  1.00  0.00     0.071 A 
HETATM    2  C   LIG     1      17.458  36.789  21.105  1.00  0.00     0.037 A 
HETATM    3  C   LIG     1      17.042  37.603  22.161  1.00  0.00     0.003 A 
HETATM    4  C   LIG     1      17.621  38.860  22.344  1.00  0.00     0.001 A 
HETATM    5  C   LIG     1      18.617  39.306  21.472  1.00  0.00     0.009 A 
HETATM    6  C   LIG     1      19.046  38.497  20.404  1.00  0.00    -0.029 A 
HETATM    7  C   LIG     1      20.119  38.997  19.477  1.00  0.00     0.051 C 
ENDROOT
BRANCH   1   8
HETATM    8  O   LIG     1      18.836  36.373  19.183  1.00  0.00    -0.360 OA
HETATM    9  H   LIG     1      19.310  35.493  19.336  1.00  0.00     0.217 HD
ENDBRANCH   1   8
TORSDOF 1
ENDMDL
MODEL 9
REMARK VINA RESULT:      -5.4      3.975      4.881
REMARK  1 active torsions:
REMARK  status: ('A' for Active; 'I' for Inactive)
REMARK    1  A    between atoms: O_1  and  C_2 
ROOT
HETATM    1  C   LIG     1      18.426  37.260  20.222  1.00  0.00     0.071 A 
HETATM    2  C   LIG     1      18.982  38.544  20.293  1.00  0.00     0.037 A 
HETATM    3  C   LIG     1      18.630  39.412  21.327  1.00  0.00     0.003 A 
HETATM    4  C   LIG     1      17.717  39.005  22.301  1.00  0.00     0.001 A 
HETATM    5  C   LIG     1      17.154  37.727  22.244  1.00  0.00     0.009 A 
HETATM    6  C   LIG     1      17.501  36.841  21.207  1.00  0.00    -0.029 A 
HETATM    7  C   LIG     1      16.883  35.471  21.165  1.00  0.00     0.051 C 
ENDROOT
BRANCH   1   8
HETATM    8  O   LIG     1      18.811  36.428  19.168  1.00  0.00    -0.360 OA
HETATM    9  H   LIG     1      19.680  36.545  18.663  1.00  0.00     0.217 HD
ENDBRANCH   1   8
TORSDOF 1
ENDMDL
MODEL 10
REMARK VINA RESULT:      -5.3      1.679      3.141
REMARK  1 active torsions:
REMARK  status: ('A' for Active; 'I' for Inactive)
REMARK    1  A    between atoms: O_1  and  C_2 
ROOT
HETATM    1  C   LIG     1      17.125  36.034  23.714  1.00  0.00     0.071 A 
HETATM    2  C   LIG     1      16.983  37.229  22.997  1.00  0.00     0.037 A 
HETATM    3  C   LIG     1      17.170  38.460  23.629  1.00  0.00     0.003 A 
HETATM    4  C   LIG     1      17.502  38.507  24.984  1.00  0.00     0.001 A 
HETATM    5  C   LIG     1      17.646  37.322  25.711  1.00  0.00     0.009 A 
HETATM    6  C   LIG     1      17.460  36.075  25.088  1.00  0.00    -0.029 A 
HETATM    7  C   LIG     1      17.621  34.813  25.889  1.00  0.00     0.051 C 
ENDROOT
BRANCH   1   8
HETATM    8  O   LIG     1      16.927  34.828  23.037  1.00  0.00    -0.360 OA
HETATM    9  H   LIG     1      17.136  34.707  22.054  1.00  0.00     0.217 HD
ENDBRANCH   1   8
TORSDOF 1
ENDMDL
MODEL 11
REMARK VINA RESULT:      -5.3      3.671      4.661
REMARK  1 active torsions:
REMARK  status: ('A' for Active; 'I' for Inactive)
REMARK    1  A    between atoms: O_1  and  C_2 
ROOT
HETATM    1  C   LIG     1      17.268  36.587  21.089  1.00  0.00     0.071 A 
HETATM    2  C   LIG     1      16.475  37.028  22.156  1.00  0.00     0.037 A 
HETATM    3  C   LIG     1      16.703  38.276  22.739  1.00  0.00     0.003 A 
HETATM    4  C   LIG     1      17.727  39.095  22.260  1.00  0.00     0.001 A 
HETATM    5  C   LIG     1      18.526  38.668  21.196  1.00  0.00     0.009 A 
HETATM    6  C   LIG     1      18.307  37.413  20.599  1.00  0.00    -0.029 A 
HETATM    7  C   LIG     1      19.179  36.973  19.455  1.00  0.00     0.051 C 
ENDROOT
BRANCH   1   8
HETATM    8  O   LIG     1      17.000  35.331  20.540  1.00  0.00    -0.360 OA
HETATM    9  H   LIG     1      16.071  35.032  20.275  1.00  0.00     0.217 HD
ENDBRANCH   1   8
TORSDOF 1
ENDMDL
MODEL 12
REMARK VINA RESULT:      -5.2      3.207      4.137
REMARK  1 active torsions:
REMARK  status: ('A' for Active; 'I' for Inactive)
REMARK    1  A    between atoms: O_1  and  C_2 
ROOT
HETATM    1  C   LIG     1      16.968  38.262  22.360  1.00  0.00     0.071 A 
HETATM    2  C   LIG     1      16.204  37.113  22.605  1.00  0.00     0.037 A 
HETATM    3  C   LIG     1      16.405  35.956  21.851  1.00  0.00     0.003 A 
HETATM    4  C   LIG     1      17.372  35.936  20.844  1.00  0.00     0.001 A 
HETATM    5  C   LIG     1      18.140  37.075  20.589  1.00  0.00     0.009 A 
HETATM    6  C   LIG     1      17.949  38.248  21.341  1.00  0.00    -0.029 A 
HETATM    7  C   LIG     1      18.787  39.462  21.049  1.00  0.00     0.051 C 
ENDROOT
BRANCH   1   8
HETATM    8  O   LIG     1      16.729  39.395  23.142  1.00  0.00    -0.360 OA
HETATM    9  H   LIG     1      15.897  39.963  23.049  1.00  0.00     0.217 HD
ENDBRANCH   1   8
TORSDOF 1
ENDMDL
MODEL 13
REMARK VINA RESULT:      -5.2      1.852      3.721
REMARK  1 active torsions:
REMARK  status: ('A' for Active; 'I' for Inactive)
REMARK    1  A    between atoms: O_1  and  C_2 
ROOT
HETATM    1  C   LIG     1      17.180  35.677  24.148  1.00  0.00     0.071 A 
HETATM    2  C   LIG     1      17.020  35.132  22.867  1.00  0.00     0.037 A 
HETATM    3  C   LIG     1      16.961  35.962  21.746  1.00  0.00     0.003 A 
HETATM    4  C   LIG     1      17.062  37.346  21.895  1.00  0.00     0.001 A 
HETATM    5  C   LIG     1      17.221  37.904  23.166  1.00  0.00     0.009 A 
HETATM    6  C   LIG     1      17.282  37.080  24.305  1.00  0.00    -0.029 A 
HETATM    7  C   LIG     1      17.455  37.701  25.663  1.00  0.00     0.051 C 
ENDROOT
BRANCH   1   8
HETATM    8  O   LIG     1      17.233  34.805  25.237  1.00  0.00    -0.360 OA
HETATM    9  H   LIG     1      16.705  33.943  25.280  1.00  0.00     0.217 HD
ENDBRANCH   1   8
TORSDOF 1
ENDMDL
MODEL 14
REMARK VINA RESULT:      -5.2      9.755     11.126
REMARK  1 active torsions:
REMARK  status: ('A' for Active; 'I' for Inactive)
REMARK    1  A    between atoms: O_1  and  C_2 
ROOT
HETATM    1  C   LIG     1      13.492  30.984  16.325  1.00  0.00     0.071 A 
HETATM    2  C   LIG     1      13.835  32.071  17.140  1.00  0.00     0.037 A 
HETATM    3  C   LIG     1      14.961  32.844  16.852  1.00  0.00     0.003 A 
HETATM    4  C   LIG     1      15.754  32.539  15.745  1.00  0.00     0.001 A 
HETATM    5  C   LIG     1      15.425  31.457  14.924  1.00  0.00     0.009 A 
HETATM    6  C   LIG     1      14.293  30.669  15.202  1.00  0.00    -0.029 A 
HETATM    7  C   LIG     1      13.956  29.511  14.304  1.00  0.00     0.051 C 
ENDROOT
BRANCH   1   8
HETATM    8  O   LIG     1      12.356  30.241  16.655  1.00  0.00    -0.360 OA
HETATM    9  H   LIG     1      11.434  30.650  16.738  1.00  0.00     0.217 HD
ENDBRANCH   1   8
TORSDOF 1
ENDMDL
MODEL 15
REMARK VINA RESULT:      -5.1      1.838      2.866
REMARK  1 active torsions:
REMARK  status: ('A' for Active; 'I' for Inactive)
REMARK    1  A    between atoms: O_1  and  C_2 
ROOT
HETATM    1  C   LIG     1      17.232  35.992  24.346  1.00  0.00     0.071 A 
HETATM    2  C   LIG     1      17.470  37.086  25.189  1.00  0.00     0.037 A 
HETATM    3  C   LIG     1      17.454  38.386  24.682  1.00  0.00     0.003 A 
HETATM    4  C   LIG     1      17.201  38.606  23.327  1.00  0.00     0.001 A 
HETATM    5  C   LIG     1      16.963  37.525  22.475  1.00  0.00     0.009 A 
HETATM    6  C   LIG     1      16.975  36.209  22.972  1.00  0.00    -0.029 A 
HETATM    7  C   LIG     1      16.716  35.060  22.037  1.00  0.00     0.051 C 
ENDROOT
BRANCH   1   8
HETATM    8  O   LIG     1      17.258  34.710  24.901  1.00  0.00    -0.360 OA
HETATM    9  H   LIG     1      16.567  34.382  25.562  1.00  0.00     0.217 HD
ENDBRANCH   1   8
TORSDOF 1
ENDMDL
MODEL 16
REMARK VINA RESULT:      -5.1      9.351     11.440
REMARK  1 active torsions:
REMARK  status: ('A' for Active; 'I' for Inactive)
REMARK    1  A    between atoms: O_1  and  C_2 
ROOT
HETATM    1  C   LIG     1      13.576  31.296  16.262  1.00  0.00     0.071 A 
HETATM    2  C   LIG     1      13.253  30.216  15.432  1.00  0.00     0.037 A 
HETATM    3  C   LIG     1      14.105  29.845  14.389  1.00  0.00     0.003 A 
HETATM    4  C   LIG     1      15.288  30.552  14.168  1.00  0.00     0.001 A 
HETATM    5  C   LIG     1      15.623  31.632  14.988  1.00  0.00     0.009 A 
HETATM    6  C   LIG     1      14.774  32.017  16.043  1.00  0.00    -0.029 A 
HETATM    7  C   LIG     1      15.155  33.182  16.914  1.00  0.00     0.051 C 
ENDROOT
BRANCH   1   8
HETATM    8  O   LIG     1      12.692  31.628  17.292  1.00  0.00    -0.360 OA
HETATM    9  H   LIG     1      12.218  30.935  17.856  1.00  0.00     0.217 HD
ENDBRANCH   1   8
TORSDOF 1
ENDMDL
MODEL 17
REMARK VINA RESULT:      -5.0      9.945     11.291
REMARK  1 active torsions:
REMARK  status: ('A' for Active; 'I' for Inactive)
REMARK    1  A    between atoms: O_1  and  C_2 
ROOT
HETATM    1  C   LIG     1      15.391  31.411  14.870  1.00  0.00     0.071 A 
HETATM    2  C   LIG     1      15.646  32.494  15.721  1.00  0.00     0.037 A 
HETATM    3  C   LIG     1      14.809  32.751  16.809  1.00  0.00     0.003 A 
HETATM    4  C   LIG     1      13.709  31.929  17.054  1.00  0.00     0.001 A 
HETATM    5  C   LIG     1      13.442  30.845  16.213  1.00  0.00     0.009 A 
HETATM    6  C   LIG     1      14.278  30.574  15.114  1.00  0.00    -0.029 A 
HETATM    7  C   LIG     1      13.972  29.403  14.221  1.00  0.00     0.051 C 
ENDROOT
BRANCH   1   8
HETATM    8  O   LIG     1      16.258  31.195  13.796  1.00  0.00    -0.360 OA
HETATM    9  H   LIG     1      16.035  30.581  13.023  1.00  0.00     0.217 HD
ENDBRANCH   1   8
TORSDOF 1
ENDMDL
MODEL 18
REMARK VINA RESULT:      -5.0     10.348     11.458
REMARK  1 active torsions:
REMARK  status: ('A' for Active; 'I' for Inactive)
REMARK    1  A    between atoms: O_1  and  C_2 
ROOT
HETATM    1  C   LIG     1      15.153  30.952  14.607  1.00  0.00     0.071 A 
HETATM    2  C   LIG     1      13.968  30.296  14.963  1.00  0.00     0.037 A 
HETATM    3  C   LIG     1      13.243  30.703  16.085  1.00  0.00     0.003 A 
HETATM    4  C   LIG     1      13.698  31.769  16.862  1.00  0.00     0.001 A 
HETATM    5  C   LIG     1      14.879  32.432  16.519  1.00  0.00     0.009 A 
HETATM    6  C   LIG     1      15.619  32.034  15.390  1.00  0.00    -0.029 A 
HETATM    7  C   LIG     1      16.887  32.762  15.039  1.00  0.00     0.051 C 
ENDROOT
BRANCH   1   8
HETATM    8  O   LIG     1      15.841  30.508  13.475  1.00  0.00    -0.360 OA
HETATM    9  H   LIG     1      15.556  29.699  12.939  1.00  0.00     0.217 HD
ENDBRANCH   1   8
TORSDOF 1
ENDMDL
MODEL 19
REMARK VINA RESULT:      -4.8      9.796     11.789
REMARK  1 active torsions:
REMARK  status: ('A' for Active; 'I' for Inactive)
REMARK    1  A    between atoms: O_1  and  C_2 
ROOT
HETATM    1  C   LIG     1      15.691  31.399  14.652  1.00  0.00     0.071 A 
HETATM    2  C   LIG     1      15.244  30.287  13.926  1.00  0.00     0.037 A 
HETATM    3  C   LIG     1      14.049  29.652  14.269  1.00  0.00     0.003 A 
HETATM    4  C   LIG     1      13.290  30.122  15.342  1.00  0.00     0.001 A 
HETATM    5  C   LIG     1      13.724  31.229  16.075  1.00  0.00     0.009 A 
HETATM    6  C   LIG     1      14.926  31.880  15.741  1.00  0.00    -0.029 A 
HETATM    7  C   LIG     1      15.374  33.070  16.543  1.00  0.00     0.051 C 
ENDROOT
BRANCH   1   8
HETATM    8  O   LIG     1      16.893  32.000  14.270  1.00  0.00    -0.360 OA
HETATM    9  H   LIG     1      17.524  31.589  13.595  1.00  0.00     0.217 HD
ENDBRANCH   1   8
TORSDOF 1
ENDMDL
MODEL 20
REMARK VINA RESULT:      -4.8      9.811     10.896
REMARK  1 active torsions:
REMARK  status: ('A' for Active; 'I' for Inactive)
REMARK    1  A    between atoms: O_1  and  C_2 
ROOT
HETATM    1  C   LIG     1      15.286  32.735  15.973  1.00  0.00     0.071 A 
HETATM    2  C   LIG     1      14.281  32.159  16.759  1.00  0.00     0.037 A 
HETATM    3  C   LIG     1      13.702  30.944  16.389  1.00  0.00     0.003 A 
HETATM    4  C   LIG     1      14.122  30.294  15.228  1.00  0.00     0.001 A 
HETATM    5  C   LIG     1      15.124  30.857  14.433  1.00  0.00     0.009 A 
HETATM    6  C   LIG     1      15.717  32.081  14.794  1.00  0.00    -0.029 A 
HETATM    7  C   LIG     1      16.793  32.669  13.925  1.00  0.00     0.051 C 
ENDROOT
BRANCH   1   8
HETATM    8  O   LIG     1      15.835  33.952  16.386  1.00  0.00    -0.360 OA
HETATM    9  H   LIG     1      15.340  34.607  16.976  1.00  0.00     0.217 HD
ENDBRANCH   1   8
TORSDOF 1
ENDMDL
