REMARK  0 active torsions:
REMARK  status: ('A' for Active; 'I' for Inactive)
ROOT
HETATM    1  C   LIG     1      -2.204  -0.116   0.074  1.00  0.00     0.050 C 
HETATM    2  C   LIG     1      -0.702  -0.057   0.023  1.00  0.00    -0.040 A 
HETATM    3  C   LIG     1       0.044  -1.247  -0.043  1.00  0.00     0.008 A 
HETATM    4  C   LIG     1       1.440  -1.204  -0.091  1.00  0.00     0.001 A 
HETATM    5  C   LIG     1       2.104   0.024  -0.074  1.00  0.00     0.002 A 
HETATM    6  C   LIG     1       1.374   1.213  -0.009  1.00  0.00     0.024 A 
HETATM    7  C   LIG     1      -0.025   1.181   0.040  1.00  0.00     0.040 A 
HETATM    8 CL   LIG     1      -0.900   2.706   0.121  1.00  0.00    -0.084 Cl
ENDROOT
TORSDOF 0
