MODEL 1
REMARK VINA RESULT:      -6.4      0.000      0.000
REMARK  0 active torsions:
REMARK  status: ('A' for Active; 'I' for Inactive)
ROOT
HETATM    1  C   LIG     1      16.987  38.214  23.234  1.00  0.00     0.049 C 
HETATM    2  C   LIG     1      17.319  37.161  24.259  1.00  0.00    -0.056 A 
HETATM    3  C   LIG     1      17.175  35.781  23.968  1.00  0.00    -0.056 A 
HETATM    4  C   LIG     1      16.683  35.312  22.625  1.00  0.00     0.049 C 
HETATM    5  C   LIG     1      17.496  34.832  24.956  1.00  0.00     0.007 A 
HETATM    6  C   LIG     1      17.954  35.240  26.210  1.00  0.00     0.001 A 
HETATM    7  C   LIG     1      18.096  36.598  26.496  1.00  0.00     0.001 A 
HETATM    8  C   LIG     1      17.781  37.554  25.527  1.00  0.00     0.007 A 
ENDROOT
TORSDOF 0
ENDMDL
MODEL 2
REMARK VINA RESULT:      -6.4      0.106      2.274
REMARK  0 active torsions:
REMARK  status: ('A' for Active; 'I' for Inactive)
ROOT
HETATM    1  C   LIG     1      16.704  35.270  22.704  1.00  0.00     0.049 C 
HETATM    2  C   LIG     1      17.212  35.738  24.042  1.00  0.00    -0.056 A 
HETATM    3  C   LIG     1      17.401  37.116  24.316  1.00  0.00    -0.056 A 
HETATM    4  C   LIG     1      17.104  38.166  23.279  1.00  0.00     0.049 C 
HETATM    5  C   LIG     1      17.879  37.509  25.580  1.00  0.00     0.007 A 
HETATM    6  C   LIG     1      18.163  36.554  26.559  1.00  0.00     0.001 A 
HETATM    7  C   LIG     1      17.976  35.199  26.290  1.00  0.00     0.001 A 
HETATM    8  C   LIG     1      17.504  34.791  25.040  1.00  0.00     0.007 A 
ENDROOT
TORSDOF 0
ENDMDL
MODEL 3
REMARK VINA RESULT:      -6.2      3.174      4.781
REMARK  0 active torsions:
REMARK  status: ('A' for Active; 'I' for Inactive)
ROOT
HETATM    1  C   LIG     1      16.833  38.329  22.725  1.00  0.00     0.049 C 
HETATM    2  C   LIG     1      17.794  38.187  21.574  1.00  0.00    -0.056 A 
HETATM    3  C   LIG     1      17.900  36.974  20.849  1.00  0.00    -0.056 A 
HETATM    4  C   LIG     1      17.057  35.777  21.201  1.00  0.00     0.049 C 
HETATM    5  C   LIG     1      18.812  36.886  19.782  1.00  0.00     0.007 A 
HETATM    6  C   LIG     1      19.607  37.981  19.436  1.00  0.00     0.001 A 
HETATM    7  C   LIG     1      19.503  39.175  20.149  1.00  0.00     0.001 A 
HETATM    8  C   LIG     1      18.603  39.279  21.212  1.00  0.00     0.007 A 
ENDROOT
TORSDOF 0
ENDMDL
MODEL 4
REMARK VINA RESULT:      -6.2      3.169      5.258
REMARK  0 active torsions:
REMARK  status: ('A' for Active; 'I' for Inactive)
ROOT
HETATM    1  C   LIG     1      17.065  35.764  21.234  1.00  0.00     0.049 C 
HETATM    2  C   LIG     1      17.898  36.962  20.864  1.00  0.00    -0.056 A 
HETATM    3  C   LIG     1      17.782  38.185  21.571  1.00  0.00    -0.056 A 
HETATM    4  C   LIG     1      16.820  38.335  22.720  1.00  0.00     0.049 C 
HETATM    5  C   LIG     1      18.580  39.279  21.191  1.00  0.00     0.007 A 
HETATM    6  C   LIG     1      19.480  39.166  20.129  1.00  0.00     0.001 A 
HETATM    7  C   LIG     1      19.595  37.963  19.434  1.00  0.00     0.001 A 
HETATM    8  C   LIG     1      18.809  36.867  19.797  1.00  0.00     0.007 A 
ENDROOT
TORSDOF 0
ENDMDL
MODEL 5
REMARK VINA RESULT:      -6.1      0.799      2.867
REMARK  0 active torsions:
REMARK  status: ('A' for Active; 'I' for Inactive)
ROOT
HETATM    1  C   LIG     1      17.464  37.905  25.770  1.00  0.00     0.049 C 
HETATM    2  C   LIG     1      17.258  37.118  24.503  1.00  0.00    -0.056 A 
HETATM    3  C   LIG     1      17.267  35.701  24.507  1.00  0.00    -0.056 A 
HETATM    4  C   LIG     1      17.487  34.925  25.778  1.00  0.00     0.049 C 
HETATM    5  C   LIG     1      17.071  35.007  23.300  1.00  0.00     0.007 A 
HETATM    6  C   LIG     1      16.866  35.703  22.106  1.00  0.00     0.001 A 
HETATM    7  C   LIG     1      16.855  37.097  22.102  1.00  0.00     0.001 A 
HETATM    8  C   LIG     1      17.050  37.803  23.292  1.00  0.00     0.007 A 
ENDROOT
TORSDOF 0
ENDMDL
MODEL 6
REMARK VINA RESULT:      -6.0      2.977      3.908
REMARK  0 active torsions:
REMARK  status: ('A' for Active; 'I' for Inactive)
ROOT
HETATM    1  C   LIG     1      18.964  39.516  20.856  1.00  0.00     0.049 C 
HETATM    2  C   LIG     1      18.075  38.372  21.264  1.00  0.00    -0.056 A 
HETATM    3  C   LIG     1      18.161  37.109  20.627  1.00  0.00    -0.056 A 
HETATM    4  C   LIG     1      19.144  36.861  19.513  1.00  0.00     0.049 C 
HETATM    5  C   LIG     1      17.309  36.068  21.040  1.00  0.00     0.007 A 
HETATM    6  C   LIG     1      16.388  36.272  22.070  1.00  0.00     0.001 A 
HETATM    7  C   LIG     1      16.304  37.514  22.698  1.00  0.00     0.001 A 
HETATM    8  C   LIG     1      17.141  38.559  22.299  1.00  0.00     0.007 A 
ENDROOT
TORSDOF 0
ENDMDL
MODEL 7
REMARK VINA RESULT:      -6.0      2.941      4.499
REMARK  0 active torsions:
REMARK  status: ('A' for Active; 'I' for Inactive)
ROOT
HETATM    1  C   LIG     1      19.126  36.818  19.479  1.00  0.00     0.049 C 
HETATM    2  C   LIG     1      18.171  37.096  20.609  1.00  0.00    -0.056 A 
HETATM    3  C   LIG     1      18.086  38.380  21.202  1.00  0.00    -0.056 A 
HETATM    4  C   LIG     1      18.949  39.518  20.726  1.00  0.00     0.049 C 
HETATM    5  C   LIG     1      17.180  38.594  22.256  1.00  0.00     0.007 A 
HETATM    6  C   LIG     1      16.369  37.555  22.717  1.00  0.00     0.001 A 
HETATM    7  C   LIG     1      16.451  36.291  22.133  1.00  0.00     0.001 A 
HETATM    8  C   LIG     1      17.346  36.061  21.086  1.00  0.00     0.007 A 
ENDROOT
TORSDOF 0
ENDMDL
MODEL 8
REMARK VINA RESULT:      -5.8      3.177      4.429
REMARK  0 active torsions:
REMARK  status: ('A' for Active; 'I' for Inactive)
ROOT
HETATM    1  C   LIG     1      16.887  35.537  20.977  1.00  0.00     0.049 C 
HETATM    2  C   LIG     1      17.369  36.923  21.314  1.00  0.00    -0.056 A 
HETATM    3  C   LIG     1      18.421  37.534  20.586  1.00  0.00    -0.056 A 
HETATM    4  C   LIG     1      19.100  36.820  19.448  1.00  0.00     0.049 C 
HETATM    5  C   LIG     1      18.840  38.830  20.937  1.00  0.00     0.007 A 
HETATM    6  C   LIG     1      18.227  39.514  21.989  1.00  0.00     0.001 A 
HETATM    7  C   LIG     1      17.191  38.914  22.705  1.00  0.00     0.001 A 
HETATM    8  C   LIG     1      16.764  37.626  22.371  1.00  0.00     0.007 A 
ENDROOT
TORSDOF 0
ENDMDL
MODEL 9
REMARK VINA RESULT:      -5.8      3.142      4.194
REMARK  0 active torsions:
REMARK  status: ('A' for Active; 'I' for Inactive)
ROOT
HETATM    1  C   LIG     1      19.036  36.811  19.404  1.00  0.00     0.049 C 
HETATM    2  C   LIG     1      18.401  37.527  20.567  1.00  0.00    -0.056 A 
HETATM    3  C   LIG     1      17.374  36.920  21.332  1.00  0.00    -0.056 A 
HETATM    4  C   LIG     1      16.874  35.537  21.012  1.00  0.00     0.049 C 
HETATM    5  C   LIG     1      16.809  37.627  22.410  1.00  0.00     0.007 A 
HETATM    6  C   LIG     1      17.254  38.912  22.727  1.00  0.00     0.001 A 
HETATM    7  C   LIG     1      18.265  39.508  21.974  1.00  0.00     0.001 A 
HETATM    8  C   LIG     1      18.836  38.822  20.900  1.00  0.00     0.007 A 
ENDROOT
TORSDOF 0
ENDMDL
MODEL 10
REMARK VINA RESULT:      -5.7      0.873      2.748
REMARK  0 active torsions:
REMARK  status: ('A' for Active; 'I' for Inactive)
ROOT
HETATM    1  C   LIG     1      17.383  34.855  25.238  1.00  0.00     0.049 C 
HETATM    2  C   LIG     1      17.319  36.176  24.518  1.00  0.00    -0.056 A 
HETATM    3  C   LIG     1      16.998  36.248  23.139  1.00  0.00    -0.056 A 
HETATM    4  C   LIG     1      16.710  35.006  22.339  1.00  0.00     0.049 C 
HETATM    5  C   LIG     1      16.950  37.504  22.507  1.00  0.00     0.007 A 
HETATM    6  C   LIG     1      17.214  38.671  23.227  1.00  0.00     0.001 A 
HETATM    7  C   LIG     1      17.529  38.601  24.584  1.00  0.00     0.001 A 
HETATM    8  C   LIG     1      17.582  37.362  25.227  1.00  0.00     0.007 A 
ENDROOT
TORSDOF 0
ENDMDL
MODEL 11
REMARK VINA RESULT:      -5.5      1.671      3.438
REMARK  0 active torsions:
REMARK  status: ('A' for Active; 'I' for Inactive)
ROOT
HETATM    1  C   LIG     1      18.051  39.279  21.932  1.00  0.00     0.049 C 
HETATM    2  C   LIG     1      17.640  37.844  22.130  1.00  0.00    -0.056 A 
HETATM    3  C   LIG     1      17.317  37.342  23.416  1.00  0.00    -0.056 A 
HETATM    4  C   LIG     1      17.373  38.223  24.635  1.00  0.00     0.049 C 
HETATM    5  C   LIG     1      16.938  35.995  23.554  1.00  0.00     0.007 A 
HETATM    6  C   LIG     1      16.878  35.156  22.439  1.00  0.00     0.001 A 
HETATM    7  C   LIG     1      17.196  35.650  21.174  1.00  0.00     0.001 A 
HETATM    8  C   LIG     1      17.575  36.985  21.019  1.00  0.00     0.007 A 
ENDROOT
TORSDOF 0
ENDMDL
MODEL 12
REMARK VINA RESULT:      -5.5      9.527     11.137
REMARK  0 active torsions:
REMARK  status: ('A' for Active; 'I' for Inactive)
ROOT
HETATM    1  C   LIG     1      15.390  30.172  13.556  1.00  0.00     0.049 C 
HETATM    2  C   LIG     1      14.757  30.796  14.772  1.00  0.00    -0.056 A 
HETATM    3  C   LIG     1      15.389  31.857  15.467  1.00  0.00    -0.056 A 
HETATM    4  C   LIG     1      16.719  32.401  15.019  1.00  0.00     0.049 C 
HETATM    5  C   LIG     1      14.762  32.409  16.599  1.00  0.00     0.007 A 
HETATM    6  C   LIG     1      13.529  31.922  17.036  1.00  0.00     0.001 A 
HETATM    7  C   LIG     1      12.906  30.878  16.351  1.00  0.00     0.001 A 
HETATM    8  C   LIG     1      13.515  30.317  15.226  1.00  0.00     0.007 A 
ENDROOT
TORSDOF 0
ENDMDL
MODEL 13
REMARK VINA RESULT:      -5.5      9.523     10.930
REMARK  0 active torsions:
REMARK  status: ('A' for Active; 'I' for Inactive)
ROOT
HETATM    1  C   LIG     1      16.708  32.413  15.079  1.00  0.00     0.049 C 
HETATM    2  C   LIG     1      15.373  31.858  15.498  1.00  0.00    -0.056 A 
HETATM    3  C   LIG     1      14.759  30.798  14.785  1.00  0.00    -0.056 A 
HETATM    4  C   LIG     1      15.417  30.186  13.577  1.00  0.00     0.049 C 
HETATM    5  C   LIG     1      13.511  30.311  15.212  1.00  0.00     0.007 A 
HETATM    6  C   LIG     1      12.879  30.862  16.329  1.00  0.00     0.001 A 
HETATM    7  C   LIG     1      13.482  31.904  17.032  1.00  0.00     0.001 A 
HETATM    8  C   LIG     1      14.722  32.400  16.621  1.00  0.00     0.007 A 
ENDROOT
TORSDOF 0
ENDMDL
MODEL 14
REMARK VINA RESULT:      -5.2      8.640     10.966
REMARK  0 active torsions:
REMARK  status: ('A' for Active; 'I' for Inactive)
ROOT
HETATM    1  C   LIG     1      15.006  33.263  17.170  1.00  0.00     0.049 C 
HETATM    2  C   LIG     1      14.777  32.138  16.196  1.00  0.00    -0.056 A 
HETATM    3  C   LIG     1      15.697  31.869  15.152  1.00  0.00    -0.056 A 
HETATM    4  C   LIG     1      16.940  32.700  14.974  1.00  0.00     0.049 C 
HETATM    5  C   LIG     1      15.443  30.808  14.264  1.00  0.00     0.007 A 
HETATM    6  C   LIG     1      14.297  30.023  14.407  1.00  0.00     0.001 A 
HETATM    7  C   LIG     1      13.392  30.286  15.435  1.00  0.00     0.001 A 
HETATM    8  C   LIG     1      13.628  31.337  16.325  1.00  0.00     0.007 A 
ENDROOT
TORSDOF 0
ENDMDL
MODEL 15
REMARK VINA RESULT:      -5.1      2.641      4.505
REMARK  0 active torsions:
REMARK  status: ('A' for Active; 'I' for Inactive)
ROOT
HETATM    1  C   LIG     1      16.351  37.846  23.629  1.00  0.00     0.049 C 
HETATM    2  C   LIG     1      16.955  37.391  22.327  1.00  0.00    -0.056 A 
HETATM    3  C   LIG     1      17.930  38.171  21.656  1.00  0.00    -0.056 A 
HETATM    4  C   LIG     1      18.399  39.487  22.218  1.00  0.00     0.049 C 
HETATM    5  C   LIG     1      18.468  37.708  20.442  1.00  0.00     0.007 A 
HETATM    6  C   LIG     1      18.050  36.491  19.900  1.00  0.00     0.001 A 
HETATM    7  C   LIG     1      17.091  35.723  20.559  1.00  0.00     0.001 A 
HETATM    8  C   LIG     1      16.546  36.169  21.766  1.00  0.00     0.007 A 
ENDROOT
TORSDOF 0
ENDMDL
MODEL 16
REMARK VINA RESULT:      -5.1      8.844     11.427
REMARK  0 active torsions:
REMARK  status: ('A' for Active; 'I' for Inactive)
ROOT
HETATM    1  C   LIG     1      13.126  30.671  16.695  1.00  0.00     0.049 C 
HETATM    2  C   LIG     1      14.171  31.004  15.663  1.00  0.00    -0.056 A 
HETATM    3  C   LIG     1      15.058  32.095  15.840  1.00  0.00    -0.056 A 
HETATM    4  C   LIG     1      14.991  32.966  17.066  1.00  0.00     0.049 C 
HETATM    5  C   LIG     1      16.018  32.370  14.849  1.00  0.00     0.007 A 
HETATM    6  C   LIG     1      16.101  31.578  13.702  1.00  0.00     0.001 A 
HETATM    7  C   LIG     1      15.229  30.504  13.528  1.00  0.00     0.001 A 
HETATM    8  C   LIG     1      14.269  30.217  14.502  1.00  0.00     0.007 A 
ENDROOT
TORSDOF 0
ENDMDL
MODEL 17
REMARK VINA RESULT:      -5.0      9.379     11.019
REMARK  0 active torsions:
REMARK  status: ('A' for Active; 'I' for Inactive)
ROOT
HETATM    1  C   LIG     1      14.369  29.564  14.136  1.00  0.00     0.049 C 
HETATM    2  C   LIG     1      14.811  30.800  14.875  1.00  0.00    -0.056 A 
HETATM    3  C   LIG     1      14.084  31.290  15.988  1.00  0.00    -0.056 A 
HETATM    4  C   LIG     1      12.839  30.596  16.476  1.00  0.00     0.049 C 
HETATM    5  C   LIG     1      14.532  32.448  16.649  1.00  0.00     0.007 A 
HETATM    6  C   LIG     1      15.683  33.111  16.217  1.00  0.00     0.001 A 
HETATM    7  C   LIG     1      16.399  32.628  15.122  1.00  0.00     0.001 A 
HETATM    8  C   LIG     1      15.967  31.480  14.454  1.00  0.00     0.007 A 
ENDROOT
TORSDOF 0
ENDMDL
MODEL 18
REMARK VINA RESULT:      -4.0     12.953     13.330
REMARK  0 active torsions:
REMARK  status: ('A' for Active; 'I' for Inactive)
ROOT
HETATM    1  C   LIG     1      27.058  38.109  18.057  1.00  0.00     0.049 C 
HETATM    2  C   LIG     1      28.240  38.629  18.832  1.00  0.00    -0.056 A 
HETATM    3  C   LIG     1      29.499  38.823  18.210  1.00  0.00    -0.056 A 
HETATM    4  C   LIG     1      29.705  38.516  16.751  1.00  0.00     0.049 C 
HETATM    5  C   LIG     1      30.576  39.310  18.973  1.00  0.00     0.007 A 
HETATM    6  C   LIG     1      30.411  39.602  20.328  1.00  0.00     0.001 A 
HETATM    7  C   LIG     1      29.173  39.412  20.940  1.00  0.00     0.001 A 
HETATM    8  C   LIG     1      28.092  38.928  20.198  1.00  0.00     0.007 A 
ENDROOT
TORSDOF 0
ENDMDL
MODEL 19
REMARK VINA RESULT:      -4.0     12.965     13.314
REMARK  0 active torsions:
REMARK  status: ('A' for Active; 'I' for Inactive)
ROOT
HETATM    1  C   LIG     1      29.707  38.523  16.769  1.00  0.00     0.049 C 
HETATM    2  C   LIG     1      29.512  38.831  18.230  1.00  0.00    -0.056 A 
HETATM    3  C   LIG     1      28.258  38.638  18.861  1.00  0.00    -0.056 A 
HETATM    4  C   LIG     1      27.070  38.118  18.097  1.00  0.00     0.049 C 
HETATM    5  C   LIG     1      28.121  38.939  20.229  1.00  0.00     0.007 A 
HETATM    6  C   LIG     1      29.207  39.423  20.961  1.00  0.00     0.001 A 
HETATM    7  C   LIG     1      30.441  39.614  20.340  1.00  0.00     0.001 A 
HETATM    8  C   LIG     1      30.595  39.320  18.983  1.00  0.00     0.007 A 
ENDROOT
TORSDOF 0
ENDMDL
MODEL 20
REMARK VINA RESULT:      -3.9     19.365     20.380
REMARK  0 active torsions:
REMARK  status: ('A' for Active; 'I' for Inactive)
ROOT
HETATM    1  C   LIG     1      12.504  18.187  14.061  1.00  0.00     0.049 C 
HETATM    2  C   LIG     1      13.844  18.572  14.629  1.00  0.00    -0.056 A 
HETATM    3  C   LIG     1      14.870  19.097  13.804  1.00  0.00    -0.056 A 
HETATM    4  C   LIG     1      14.661  19.290  12.326  1.00  0.00     0.049 C 
HETATM    5  C   LIG     1      16.107  19.443  14.378  1.00  0.00     0.007 A 
HETATM    6  C   LIG     1      16.326  19.274  15.746  1.00  0.00     0.001 A 
HETATM    7  C   LIG     1      15.317  18.757  16.559  1.00  0.00     0.001 A 
HETATM    8  C   LIG     1      14.083  18.408  16.006  1.00  0.00     0.007 A 
ENDROOT
TORSDOF 0
ENDMDL
