REMARK  2 active torsions:
REMARK  status: ('A' for Active; 'I' for Inactive)
REMARK    1  A    between atoms: N_1  and  C_2 
REMARK    2  A    between atoms: C_7  and  O_8 
ROOT
HETATM    1  C   LIG     1      -0.744  -0.268  -0.098  1.00  0.00     0.059 A 
HETATM    2  C   LIG     1       0.133  -1.330  -0.381  1.00  0.00     0.032 A 
HETATM    3  C   LIG     1       1.515  -1.155  -0.292  1.00  0.00     0.002 A 
HETATM    4  C   LIG     1       2.040   0.082   0.080  1.00  0.00     0.003 A 
HETATM    5  C   LIG     1       1.184   1.147   0.364  1.00  0.00     0.039 A 
HETATM    6  C   LIG     1      -0.206   0.989   0.280  1.00  0.00     0.091 A 
ENDROOT
BRANCH   1   7
HETATM    7  N   LIG     1      -2.156  -0.497  -0.203  1.00  0.00    -0.397 N 
HETATM    8  H   LIG     1      -2.869   0.236  -0.010  1.00  0.00     0.156 HD
HETATM    9  H   LIG     1      -2.516  -1.436  -0.484  1.00  0.00     0.156 HD
ENDBRANCH   1   7
BRANCH   6  10
HETATM   10  O   LIG     1      -1.003   2.096   0.579  1.00  0.00    -0.358 OA
HETATM   11  H   LIG     1      -2.012   2.093   0.550  1.00  0.00     0.217 HD
ENDBRANCH   6  10
TORSDOF 2
