MODEL 1
REMARK VINA RESULT:      -6.0      0.000      0.000
REMARK  0 active torsions:
REMARK  status: ('A' for Active; 'I' for Inactive)
ROOT
HETATM    1 CL   LIG     1      16.541  35.172  22.551  1.00  0.00    -0.083 Cl
HETATM    2  C   LIG     1      17.168  35.760  24.084  1.00  0.00     0.055 A 
HETATM    3  C   LIG     1      17.312  37.137  24.334  1.00  0.00     0.055 A 
HETATM    4 CL   LIG     1      16.869  38.334  23.124  1.00  0.00    -0.083 Cl
HETATM    5  C   LIG     1      17.815  37.570  25.566  1.00  0.00     0.025 A 
HETATM    6  C   LIG     1      18.174  36.641  26.546  1.00  0.00     0.002 A 
HETATM    7  C   LIG     1      18.032  35.273  26.299  1.00  0.00     0.002 A 
HETATM    8  C   LIG     1      17.530  34.833  25.070  1.00  0.00     0.025 A 
ENDROOT
TORSDOF 0
ENDMDL
MODEL 2
REMARK VINA RESULT:      -6.0      0.017      2.355
REMARK  0 active torsions:
REMARK  status: ('A' for Active; 'I' for Inactive)
ROOT
HETATM    1 CL   LIG     1      16.890  38.330  23.104  1.00  0.00    -0.083 Cl
HETATM    2  C   LIG     1      17.319  37.134  24.319  1.00  0.00     0.055 A 
HETATM    3  C   LIG     1      17.165  35.758  24.074  1.00  0.00     0.055 A 
HETATM    4 CL   LIG     1      16.537  35.168  22.541  1.00  0.00    -0.083 Cl
HETATM    5  C   LIG     1      17.517  34.832  25.064  1.00  0.00     0.025 A 
HETATM    6  C   LIG     1      18.020  35.272  26.292  1.00  0.00     0.002 A 
HETATM    7  C   LIG     1      18.173  36.640  26.536  1.00  0.00     0.002 A 
HETATM    8  C   LIG     1      17.823  37.569  25.551  1.00  0.00     0.025 A 
ENDROOT
TORSDOF 0
ENDMDL
MODEL 3
REMARK VINA RESULT:      -5.6      3.884      5.326
REMARK  0 active torsions:
REMARK  status: ('A' for Active; 'I' for Inactive)
ROOT
HETATM    1 CL   LIG     1      16.645  38.285  22.888  1.00  0.00    -0.083 Cl
HETATM    2  C   LIG     1      17.775  38.145  21.549  1.00  0.00     0.055 A 
HETATM    3  C   LIG     1      17.923  36.938  20.842  1.00  0.00     0.055 A 
HETATM    4 CL   LIG     1      16.981  35.513  21.263  1.00  0.00    -0.083 Cl
HETATM    5  C   LIG     1      18.833  36.861  19.781  1.00  0.00     0.025 A 
HETATM    6  C   LIG     1      19.594  37.978  19.425  1.00  0.00     0.002 A 
HETATM    7  C   LIG     1      19.449  39.177  20.127  1.00  0.00     0.002 A 
HETATM    8  C   LIG     1      18.541  39.260  21.188  1.00  0.00     0.025 A 
ENDROOT
TORSDOF 0
ENDMDL
MODEL 4
REMARK VINA RESULT:      -5.6      3.793      4.742
REMARK  0 active torsions:
REMARK  status: ('A' for Active; 'I' for Inactive)
ROOT
HETATM    1 CL   LIG     1      16.954  35.450  21.343  1.00  0.00    -0.083 Cl
HETATM    2  C   LIG     1      17.860  36.896  20.923  1.00  0.00     0.055 A 
HETATM    3  C   LIG     1      17.699  38.093  21.645  1.00  0.00     0.055 A 
HETATM    4 CL   LIG     1      16.586  38.197  23.002  1.00  0.00    -0.083 Cl
HETATM    5  C   LIG     1      18.437  39.226  21.283  1.00  0.00     0.025 A 
HETATM    6  C   LIG     1      19.330  39.172  20.209  1.00  0.00     0.002 A 
HETATM    7  C   LIG     1      19.489  37.983  19.491  1.00  0.00     0.002 A 
HETATM    8  C   LIG     1      18.756  36.848  19.848  1.00  0.00     0.025 A 
ENDROOT
TORSDOF 0
ENDMDL
MODEL 5
REMARK VINA RESULT:      -5.4      3.556      4.572
REMARK  0 active torsions:
REMARK  status: ('A' for Active; 'I' for Inactive)
ROOT
HETATM    1 CL   LIG     1      18.971  39.671  20.719  1.00  0.00    -0.083 Cl
HETATM    2  C   LIG     1      17.971  38.336  21.276  1.00  0.00     0.055 A 
HETATM    3  C   LIG     1      18.092  37.051  20.718  1.00  0.00     0.055 A 
HETATM    4 CL   LIG     1      19.251  36.718  19.437  1.00  0.00    -0.083 Cl
HETATM    5  C   LIG     1      17.280  36.011  21.185  1.00  0.00     0.025 A 
HETATM    6  C   LIG     1      16.351  36.247  22.203  1.00  0.00     0.002 A 
HETATM    7  C   LIG     1      16.230  37.523  22.758  1.00  0.00     0.002 A 
HETATM    8  C   LIG     1      17.038  38.566  22.295  1.00  0.00     0.025 A 
ENDROOT
TORSDOF 0
ENDMDL
MODEL 6
REMARK VINA RESULT:      -5.3      1.940      3.020
REMARK  0 active torsions:
REMARK  status: ('A' for Active; 'I' for Inactive)
ROOT
HETATM    1 CL   LIG     1      16.945  39.315  22.613  1.00  0.00    -0.083 Cl
HETATM    2  C   LIG     1      17.020  37.622  23.081  1.00  0.00     0.055 A 
HETATM    3  C   LIG     1      17.200  37.243  24.423  1.00  0.00     0.055 A 
HETATM    4 CL   LIG     1      17.356  38.446  25.697  1.00  0.00    -0.083 Cl
HETATM    5  C   LIG     1      17.255  35.886  24.760  1.00  0.00     0.025 A 
HETATM    6  C   LIG     1      17.133  34.909  23.768  1.00  0.00     0.002 A 
HETATM    7  C   LIG     1      16.955  35.284  22.434  1.00  0.00     0.002 A 
HETATM    8  C   LIG     1      16.898  36.639  22.091  1.00  0.00     0.025 A 
ENDROOT
TORSDOF 0
ENDMDL
MODEL 7
REMARK VINA RESULT:      -5.2      3.444      4.450
REMARK  0 active torsions:
REMARK  status: ('A' for Active; 'I' for Inactive)
ROOT
HETATM    1 CL   LIG     1      19.183  36.697  19.403  1.00  0.00    -0.083 Cl
HETATM    2  C   LIG     1      18.331  37.513  20.707  1.00  0.00     0.055 A 
HETATM    3  C   LIG     1      17.279  36.884  21.397  1.00  0.00     0.055 A 
HETATM    4 CL   LIG     1      16.768  35.251  20.990  1.00  0.00    -0.083 Cl
HETATM    5  C   LIG     1      16.622  37.563  22.430  1.00  0.00     0.025 A 
HETATM    6  C   LIG     1      17.008  38.861  22.775  1.00  0.00     0.002 A 
HETATM    7  C   LIG     1      18.052  39.487  22.089  1.00  0.00     0.002 A 
HETATM    8  C   LIG     1      18.712  38.814  21.057  1.00  0.00     0.025 A 
ENDROOT
TORSDOF 0
ENDMDL
MODEL 8
REMARK VINA RESULT:      -5.2      1.815      3.083
REMARK  0 active torsions:
REMARK  status: ('A' for Active; 'I' for Inactive)
ROOT
HETATM    1 CL   LIG     1      17.300  34.782  25.189  1.00  0.00    -0.083 Cl
HETATM    2  C   LIG     1      17.254  36.313  24.327  1.00  0.00     0.055 A 
HETATM    3  C   LIG     1      16.880  36.378  22.973  1.00  0.00     0.055 A 
HETATM    4 CL   LIG     1      16.438  34.929  22.078  1.00  0.00    -0.083 Cl
HETATM    5  C   LIG     1      16.855  37.615  22.317  1.00  0.00     0.025 A 
HETATM    6  C   LIG     1      17.200  38.782  23.004  1.00  0.00     0.002 A 
HETATM    7  C   LIG     1      17.573  38.719  24.349  1.00  0.00     0.002 A 
HETATM    8  C   LIG     1      17.600  37.487  25.010  1.00  0.00     0.025 A 
ENDROOT
TORSDOF 0
ENDMDL
MODEL 9
REMARK VINA RESULT:      -5.2      3.358      4.069
REMARK  0 active torsions:
REMARK  status: ('A' for Active; 'I' for Inactive)
ROOT
HETATM    1 CL   LIG     1      16.748  35.095  21.009  1.00  0.00    -0.083 Cl
HETATM    2  C   LIG     1      17.203  36.737  21.441  1.00  0.00     0.055 A 
HETATM    3  C   LIG     1      18.208  37.425  20.738  1.00  0.00     0.055 A 
HETATM    4 CL   LIG     1      19.055  36.675  19.391  1.00  0.00    -0.083 Cl
HETATM    5  C   LIG     1      18.546  38.732  21.109  1.00  0.00     0.025 A 
HETATM    6  C   LIG     1      17.889  39.352  22.175  1.00  0.00     0.002 A 
HETATM    7  C   LIG     1      16.891  38.669  22.875  1.00  0.00     0.002 A 
HETATM    8  C   LIG     1      16.549  37.364  22.509  1.00  0.00     0.025 A 
ENDROOT
TORSDOF 0
ENDMDL
MODEL 10
REMARK VINA RESULT:      -4.9      9.768     11.161
REMARK  0 active torsions:
REMARK  status: ('A' for Active; 'I' for Inactive)
ROOT
HETATM    1 CL   LIG     1      16.982  32.429  15.012  1.00  0.00    -0.083 Cl
HETATM    2  C   LIG     1      15.403  31.855  15.528  1.00  0.00     0.055 A 
HETATM    3  C   LIG     1      14.750  30.809  14.852  1.00  0.00     0.055 A 
HETATM    4 CL   LIG     1      15.484  30.025  13.459  1.00  0.00    -0.083 Cl
HETATM    5  C   LIG     1      13.493  30.376  15.289  1.00  0.00     0.025 A 
HETATM    6  C   LIG     1      12.886  30.981  16.394  1.00  0.00     0.002 A 
HETATM    7  C   LIG     1      13.534  32.021  17.066  1.00  0.00     0.002 A 
HETATM    8  C   LIG     1      14.790  32.457  16.634  1.00  0.00     0.025 A 
ENDROOT
TORSDOF 0
ENDMDL
MODEL 11
REMARK VINA RESULT:      -4.9      9.310     10.624
REMARK  0 active torsions:
REMARK  status: ('A' for Active; 'I' for Inactive)
ROOT
HETATM    1 CL   LIG     1      15.172  34.040  17.378  1.00  0.00    -0.083 Cl
HETATM    2  C   LIG     1      14.702  32.591  16.502  1.00  0.00     0.055 A 
HETATM    3  C   LIG     1      15.486  32.088  15.448  1.00  0.00     0.055 A 
HETATM    4 CL   LIG     1      16.974  32.886  14.957  1.00  0.00    -0.083 Cl
HETATM    5  C   LIG     1      15.081  30.931  14.771  1.00  0.00     0.025 A 
HETATM    6  C   LIG     1      13.903  30.276  15.140  1.00  0.00     0.002 A 
HETATM    7  C   LIG     1      13.123  30.775  16.187  1.00  0.00     0.002 A 
HETATM    8  C   LIG     1      13.522  31.930  16.867  1.00  0.00     0.025 A 
ENDROOT
TORSDOF 0
ENDMDL
MODEL 12
REMARK VINA RESULT:      -4.8      9.740     11.072
REMARK  0 active torsions:
REMARK  status: ('A' for Active; 'I' for Inactive)
ROOT
HETATM    1 CL   LIG     1      17.163  32.670  15.052  1.00  0.00    -0.083 Cl
HETATM    2  C   LIG     1      15.679  31.738  15.183  1.00  0.00     0.055 A 
HETATM    3  C   LIG     1      14.772  31.953  16.237  1.00  0.00     0.055 A 
HETATM    4 CL   LIG     1      15.081  33.167  17.472  1.00  0.00    -0.083 Cl
HETATM    5  C   LIG     1      13.599  31.192  16.311  1.00  0.00     0.025 A 
HETATM    6  C   LIG     1      13.329  30.221  15.342  1.00  0.00     0.002 A 
HETATM    7  C   LIG     1      14.229  30.006  14.296  1.00  0.00     0.002 A 
HETATM    8  C   LIG     1      15.402  30.763  14.216  1.00  0.00     0.025 A 
ENDROOT
TORSDOF 0
ENDMDL
MODEL 13
REMARK VINA RESULT:      -4.8      9.672     10.881
REMARK  0 active torsions:
REMARK  status: ('A' for Active; 'I' for Inactive)
ROOT
HETATM    1 CL   LIG     1      15.651  30.366  13.398  1.00  0.00    -0.083 Cl
HETATM    2  C   LIG     1      14.828  30.973  14.828  1.00  0.00     0.055 A 
HETATM    3  C   LIG     1      15.353  32.045  15.571  1.00  0.00     0.055 A 
HETATM    4 CL   LIG     1      16.856  32.830  15.105  1.00  0.00    -0.083 Cl
HETATM    5  C   LIG     1      14.672  32.503  16.705  1.00  0.00     0.025 A 
HETATM    6  C   LIG     1      13.474  31.898  17.099  1.00  0.00     0.002 A 
HETATM    7  C   LIG     1      12.953  30.832  16.361  1.00  0.00     0.002 A 
HETATM    8  C   LIG     1      13.629  30.370  15.227  1.00  0.00     0.025 A 
ENDROOT
TORSDOF 0
ENDMDL
MODEL 14
REMARK VINA RESULT:      -4.7      2.717      3.873
REMARK  0 active torsions:
REMARK  status: ('A' for Active; 'I' for Inactive)
ROOT
HETATM    1 CL   LIG     1      17.464  38.880  23.882  1.00  0.00    -0.083 Cl
HETATM    2  C   LIG     1      17.345  37.516  22.780  1.00  0.00     0.055 A 
HETATM    3  C   LIG     1      17.748  37.625  21.437  1.00  0.00     0.055 A 
HETATM    4 CL   LIG     1      18.393  39.131  20.798  1.00  0.00    -0.083 Cl
HETATM    5  C   LIG     1      17.639  36.518  20.587  1.00  0.00     0.025 A 
HETATM    6  C   LIG     1      17.130  35.308  21.069  1.00  0.00     0.002 A 
HETATM    7  C   LIG     1      16.729  35.200  22.403  1.00  0.00     0.002 A 
HETATM    8  C   LIG     1      16.836  36.301  23.257  1.00  0.00     0.025 A 
ENDROOT
TORSDOF 0
ENDMDL
MODEL 15
REMARK VINA RESULT:      -4.7      3.477      4.195
REMARK  0 active torsions:
REMARK  status: ('A' for Active; 'I' for Inactive)
ROOT
HETATM    1 CL   LIG     1      19.210  38.921  20.613  1.00  0.00    -0.083 Cl
HETATM    2  C   LIG     1      18.016  37.727  21.100  1.00  0.00     0.055 A 
HETATM    3  C   LIG     1      17.121  37.978  22.156  1.00  0.00     0.055 A 
HETATM    4 CL   LIG     1      17.153  39.500  23.036  1.00  0.00    -0.083 Cl
HETATM    5  C   LIG     1      16.183  37.004  22.518  1.00  0.00     0.025 A 
HETATM    6  C   LIG     1      16.134  35.785  21.835  1.00  0.00     0.002 A 
HETATM    7  C   LIG     1      17.023  35.535  20.787  1.00  0.00     0.002 A 
HETATM    8  C   LIG     1      17.963  36.503  20.420  1.00  0.00     0.025 A 
ENDROOT
TORSDOF 0
ENDMDL
MODEL 16
REMARK VINA RESULT:      -4.5     10.294     11.646
REMARK  0 active torsions:
REMARK  status: ('A' for Active; 'I' for Inactive)
ROOT
HETATM    1 CL   LIG     1      13.365  29.094  14.293  1.00  0.00    -0.083 Cl
HETATM    2  C   LIG     1      14.479  30.437  14.509  1.00  0.00     0.055 A 
HETATM    3  C   LIG     1      14.501  31.183  15.701  1.00  0.00     0.055 A 
HETATM    4 CL   LIG     1      13.416  30.806  17.033  1.00  0.00    -0.083 Cl
HETATM    5  C   LIG     1      15.402  32.246  15.839  1.00  0.00     0.025 A 
HETATM    6  C   LIG     1      16.276  32.567  14.796  1.00  0.00     0.002 A 
HETATM    7  C   LIG     1      16.254  31.827  13.611  1.00  0.00     0.002 A 
HETATM    8  C   LIG     1      15.358  30.764  13.467  1.00  0.00     0.025 A 
ENDROOT
TORSDOF 0
ENDMDL
MODEL 17
REMARK VINA RESULT:      -4.5     10.269     11.778
REMARK  0 active torsions:
REMARK  status: ('A' for Active; 'I' for Inactive)
ROOT
HETATM    1 CL   LIG     1      13.358  30.776  17.019  1.00  0.00    -0.083 Cl
HETATM    2  C   LIG     1      14.461  31.188  15.714  1.00  0.00     0.055 A 
HETATM    3  C   LIG     1      14.472  30.461  14.511  1.00  0.00     0.055 A 
HETATM    4 CL   LIG     1      13.383  29.104  14.255  1.00  0.00    -0.083 Cl
HETATM    5  C   LIG     1      15.364  30.817  13.492  1.00  0.00     0.025 A 
HETATM    6  C   LIG     1      16.241  31.891  13.669  1.00  0.00     0.002 A 
HETATM    7  C   LIG     1      16.230  32.614  14.864  1.00  0.00     0.002 A 
HETATM    8  C   LIG     1      15.342  32.264  15.885  1.00  0.00     0.025 A 
ENDROOT
TORSDOF 0
ENDMDL
MODEL 18
REMARK VINA RESULT:      -4.4      9.636     11.180
REMARK  0 active torsions:
REMARK  status: ('A' for Active; 'I' for Inactive)
ROOT
HETATM    1 CL   LIG     1      15.037  32.953  17.695  1.00  0.00    -0.083 Cl
HETATM    2  C   LIG     1      15.259  32.258  16.095  1.00  0.00     0.055 A 
HETATM    3  C   LIG     1      14.469  31.183  15.650  1.00  0.00     0.055 A 
HETATM    4 CL   LIG     1      13.219  30.485  16.673  1.00  0.00    -0.083 Cl
HETATM    5  C   LIG     1      14.673  30.654  14.370  1.00  0.00     0.025 A 
HETATM    6  C   LIG     1      15.658  31.190  13.536  1.00  0.00     0.002 A 
HETATM    7  C   LIG     1      16.444  32.257  13.978  1.00  0.00     0.002 A 
HETATM    8  C   LIG     1      16.245  32.791  15.255  1.00  0.00     0.025 A 
ENDROOT
TORSDOF 0
ENDMDL
MODEL 19
REMARK VINA RESULT:      -3.7     19.857     20.391
REMARK  0 active torsions:
REMARK  status: ('A' for Active; 'I' for Inactive)
ROOT
HETATM    1 CL   LIG     1      12.258  18.174  14.016  1.00  0.00    -0.083 Cl
HETATM    2  C   LIG     1      13.848  18.593  14.638  1.00  0.00     0.055 A 
HETATM    3  C   LIG     1      14.847  19.114  13.797  1.00  0.00     0.055 A 
HETATM    4 CL   LIG     1      14.552  19.372  12.082  1.00  0.00    -0.083 Cl
HETATM    5  C   LIG     1      16.102  19.436  14.326  1.00  0.00     0.025 A 
HETATM    6  C   LIG     1      16.364  19.242  15.685  1.00  0.00     0.002 A 
HETATM    7  C   LIG     1      15.372  18.724  16.522  1.00  0.00     0.002 A 
HETATM    8  C   LIG     1      14.116  18.400  16.000  1.00  0.00     0.025 A 
ENDROOT
TORSDOF 0
ENDMDL
MODEL 20
REMARK VINA RESULT:      -3.4     19.541     20.658
REMARK  0 active torsions:
REMARK  status: ('A' for Active; 'I' for Inactive)
ROOT
HETATM    1 CL   LIG     1      16.845  20.225  15.727  1.00  0.00    -0.083 Cl
HETATM    2  C   LIG     1      15.721  19.477  14.601  1.00  0.00     0.055 A 
HETATM    3  C   LIG     1      14.656  18.678  15.055  1.00  0.00     0.055 A 
HETATM    4 CL   LIG     1      14.398  18.392  16.771  1.00  0.00    -0.083 Cl
HETATM    5  C   LIG     1      13.780  18.097  14.130  1.00  0.00     0.025 A 
HETATM    6  C   LIG     1      13.961  18.309  12.760  1.00  0.00     0.002 A 
HETATM    7  C   LIG     1      15.019  19.102  12.308  1.00  0.00     0.002 A 
HETATM    8  C   LIG     1      15.898  19.685  13.227  1.00  0.00     0.025 A 
ENDROOT
TORSDOF 0
ENDMDL
