MODEL 1
REMARK VINA RESULT:      -5.8      0.000      0.000
REMARK  2 active torsions:
REMARK  status: ('A' for Active; 'I' for Inactive)
REMARK    1  A    between atoms: N_1  and  C_2 
REMARK    2  A    between atoms: C_7  and  N_8 
ROOT
HETATM    1  C   LIG     1      17.342  37.341  24.847  1.00  0.00     0.052 A 
HETATM    2  C   LIG     1      17.899  37.330  26.137  1.00  0.00     0.031 A 
HETATM    3  C   LIG     1      18.218  36.125  26.765  1.00  0.00     0.002 A 
HETATM    4  C   LIG     1      17.985  34.915  26.112  1.00  0.00     0.002 A 
HETATM    5  C   LIG     1      17.441  34.908  24.826  1.00  0.00     0.031 A 
HETATM    6  C   LIG     1      17.125  36.111  24.175  1.00  0.00     0.052 A 
ENDROOT
BRANCH   1   7
HETATM    7  N   LIG     1      16.987  38.602  24.262  1.00  0.00    -0.397 N 
HETATM    8  H   LIG     1      17.464  39.494  24.513  1.00  0.00     0.156 HD
HETATM    9  H   LIG     1      16.291  38.644  23.484  1.00  0.00     0.156 HD
ENDBRANCH   1   7
BRANCH   6  10
HETATM   10  N   LIG     1      16.613  36.056  22.837  1.00  0.00    -0.397 N 
HETATM   11  H   LIG     1      16.540  36.927  22.265  1.00  0.00     0.156 HD
HETATM   12  H   LIG     1      16.213  35.189  22.421  1.00  0.00     0.156 HD
ENDBRANCH   6  10
TORSDOF 2
ENDMDL
MODEL 2
REMARK VINA RESULT:      -5.8      0.039      2.259
REMARK  2 active torsions:
REMARK  status: ('A' for Active; 'I' for Inactive)
REMARK    1  A    between atoms: N_1  and  C_2 
REMARK    2  A    between atoms: C_7  and  N_8 
ROOT
HETATM    1  C   LIG     1      17.144  36.083  24.192  1.00  0.00     0.052 A 
HETATM    2  C   LIG     1      17.469  34.891  24.862  1.00  0.00     0.031 A 
HETATM    3  C   LIG     1      18.010  34.922  26.149  1.00  0.00     0.002 A 
HETATM    4  C   LIG     1      18.232  36.144  26.783  1.00  0.00     0.002 A 
HETATM    5  C   LIG     1      17.905  37.337  26.137  1.00  0.00     0.031 A 
HETATM    6  C   LIG     1      17.349  37.324  24.847  1.00  0.00     0.052 A 
ENDROOT
BRANCH   1   7
HETATM    7  N   LIG     1      16.635  36.002  22.854  1.00  0.00    -0.397 N 
HETATM    8  H   LIG     1      16.187  35.143  22.472  1.00  0.00     0.156 HD
HETATM    9  H   LIG     1      16.615  36.852  22.246  1.00  0.00     0.156 HD
ENDBRANCH   1   7
BRANCH   6  10
HETATM   10  N   LIG     1      16.986  38.572  24.242  1.00  0.00    -0.397 N 
HETATM   11  H   LIG     1      17.396  38.850  23.322  1.00  0.00     0.156 HD
HETATM   12  H   LIG     1      16.390  39.279  24.721  1.00  0.00     0.156 HD
ENDBRANCH   6  10
TORSDOF 2
ENDMDL
MODEL 3
REMARK VINA RESULT:      -5.5      1.765      2.662
REMARK  2 active torsions:
REMARK  status: ('A' for Active; 'I' for Inactive)
REMARK    1  A    between atoms: N_1  and  C_2 
REMARK    2  A    between atoms: C_7  and  N_8 
ROOT
HETATM    1  C   LIG     1      17.186  37.455  24.816  1.00  0.00     0.052 A 
HETATM    2  C   LIG     1      16.845  37.516  23.454  1.00  0.00     0.031 A 
HETATM    3  C   LIG     1      16.770  36.353  22.685  1.00  0.00     0.002 A 
HETATM    4  C   LIG     1      17.033  35.114  23.267  1.00  0.00     0.002 A 
HETATM    5  C   LIG     1      17.362  35.033  24.621  1.00  0.00     0.031 A 
HETATM    6  C   LIG     1      17.432  36.192  25.412  1.00  0.00     0.052 A 
ENDROOT
BRANCH   1   7
HETATM    7  N   LIG     1      17.297  38.680  25.552  1.00  0.00    -0.397 N 
HETATM    8  H   LIG     1      16.693  38.902  26.372  1.00  0.00     0.156 HD
HETATM    9  H   LIG     1      18.066  39.354  25.339  1.00  0.00     0.156 HD
ENDBRANCH   1   7
BRANCH   6  10
HETATM   10  N   LIG     1      17.728  36.055  26.809  1.00  0.00    -0.397 N 
HETATM   11  H   LIG     1      17.033  35.614  27.453  1.00  0.00     0.156 HD
HETATM   12  H   LIG     1      18.579  36.463  27.248  1.00  0.00     0.156 HD
ENDBRANCH   6  10
TORSDOF 2
ENDMDL
MODEL 4
REMARK VINA RESULT:      -5.5      1.543      2.244
REMARK  2 active torsions:
REMARK  status: ('A' for Active; 'I' for Inactive)
REMARK    1  A    between atoms: N_1  and  C_2 
REMARK    2  A    between atoms: C_7  and  N_8 
ROOT
HETATM    1  C   LIG     1      17.181  37.454  24.839  1.00  0.00     0.052 A 
HETATM    2  C   LIG     1      17.471  36.166  25.319  1.00  0.00     0.031 A 
HETATM    3  C   LIG     1      17.359  35.053  24.483  1.00  0.00     0.002 A 
HETATM    4  C   LIG     1      16.957  35.213  23.157  1.00  0.00     0.002 A 
HETATM    5  C   LIG     1      16.675  36.487  22.662  1.00  0.00     0.031 A 
HETATM    6  C   LIG     1      16.792  37.619  23.485  1.00  0.00     0.052 A 
ENDROOT
BRANCH   1   7
HETATM    7  N   LIG     1      17.264  38.561  25.748  1.00  0.00    -0.397 N 
HETATM    8  H   LIG     1      17.474  39.532  25.435  1.00  0.00     0.156 HD
HETATM    9  H   LIG     1      17.017  38.434  26.755  1.00  0.00     0.156 HD
ENDBRANCH   1   7
BRANCH   6  10
HETATM   10  N   LIG     1      16.538  38.911  22.918  1.00  0.00    -0.397 N 
HETATM   11  H   LIG     1      15.663  39.083  22.373  1.00  0.00     0.156 HD
HETATM   12  H   LIG     1      17.235  39.684  22.940  1.00  0.00     0.156 HD
ENDBRANCH   6  10
TORSDOF 2
ENDMDL
MODEL 5
REMARK VINA RESULT:      -5.1      4.063      5.012
REMARK  2 active torsions:
REMARK  status: ('A' for Active; 'I' for Inactive)
REMARK    1  A    between atoms: N_1  and  C_2 
REMARK    2  A    between atoms: C_7  and  N_8 
ROOT
HETATM    1  C   LIG     1      17.653  37.781  21.493  1.00  0.00     0.052 A 
HETATM    2  C   LIG     1      18.425  38.955  21.466  1.00  0.00     0.031 A 
HETATM    3  C   LIG     1      19.418  39.133  20.501  1.00  0.00     0.002 A 
HETATM    4  C   LIG     1      19.653  38.139  19.550  1.00  0.00     0.002 A 
HETATM    5  C   LIG     1      18.889  36.971  19.557  1.00  0.00     0.031 A 
HETATM    6  C   LIG     1      17.878  36.781  20.514  1.00  0.00     0.052 A 
ENDROOT
BRANCH   1   7
HETATM    7  N   LIG     1      16.677  37.624  22.533  1.00  0.00    -0.397 N 
HETATM    8  H   LIG     1      16.600  36.759  23.108  1.00  0.00     0.156 HD
HETATM    9  H   LIG     1      16.069  38.428  22.809  1.00  0.00     0.156 HD
ENDBRANCH   1   7
BRANCH   6  10
HETATM   10  N   LIG     1      17.089  35.585  20.452  1.00  0.00    -0.397 N 
HETATM   11  H   LIG     1      16.576  35.338  19.575  1.00  0.00     0.156 HD
HETATM   12  H   LIG     1      16.916  34.979  21.281  1.00  0.00     0.156 HD
ENDBRANCH   6  10
TORSDOF 2
ENDMDL
MODEL 6
REMARK VINA RESULT:      -5.1      3.933      5.004
REMARK  2 active torsions:
REMARK  status: ('A' for Active; 'I' for Inactive)
REMARK    1  A    between atoms: N_1  and  C_2 
REMARK    2  A    between atoms: C_7  and  N_8 
ROOT
HETATM    1  C   LIG     1      18.384  37.288  20.427  1.00  0.00     0.052 A 
HETATM    2  C   LIG     1      17.428  36.509  21.101  1.00  0.00     0.031 A 
HETATM    3  C   LIG     1      16.744  37.020  22.206  1.00  0.00     0.002 A 
HETATM    4  C   LIG     1      17.005  38.315  22.650  1.00  0.00     0.002 A 
HETATM    5  C   LIG     1      17.944  39.106  21.986  1.00  0.00     0.031 A 
HETATM    6  C   LIG     1      18.634  38.613  20.867  1.00  0.00     0.052 A 
ENDROOT
BRANCH   1   7
HETATM    7  N   LIG     1      19.095  36.703  19.327  1.00  0.00    -0.397 N 
HETATM    8  H   LIG     1      18.722  36.697  18.354  1.00  0.00     0.156 HD
HETATM    9  H   LIG     1      20.068  36.346  19.460  1.00  0.00     0.156 HD
ENDBRANCH   1   7
BRANCH   6  10
HETATM   10  N   LIG     1      19.554  39.478  20.189  1.00  0.00    -0.397 N 
HETATM   11  H   LIG     1      19.493  39.604  19.153  1.00  0.00     0.156 HD
HETATM   12  H   LIG     1      20.360  39.931  20.667  1.00  0.00     0.156 HD
ENDBRANCH   6  10
TORSDOF 2
ENDMDL
MODEL 7
REMARK VINA RESULT:      -5.1      3.934      4.473
REMARK  2 active torsions:
REMARK  status: ('A' for Active; 'I' for Inactive)
REMARK    1  A    between atoms: N_1  and  C_2 
REMARK    2  A    between atoms: C_7  and  N_8 
ROOT
HETATM    1  C   LIG     1      18.618  38.606  20.868  1.00  0.00     0.052 A 
HETATM    2  C   LIG     1      17.916  39.094  21.983  1.00  0.00     0.031 A 
HETATM    3  C   LIG     1      16.980  38.296  22.641  1.00  0.00     0.002 A 
HETATM    4  C   LIG     1      16.732  36.998  22.194  1.00  0.00     0.002 A 
HETATM    5  C   LIG     1      17.427  36.494  21.093  1.00  0.00     0.031 A 
HETATM    6  C   LIG     1      18.381  37.279  20.426  1.00  0.00     0.052 A 
ENDROOT
BRANCH   1   7
HETATM    7  N   LIG     1      19.535  39.480  20.196  1.00  0.00    -0.397 N 
HETATM    8  H   LIG     1      20.044  40.247  20.685  1.00  0.00     0.156 HD
HETATM    9  H   LIG     1      19.794  39.306  19.199  1.00  0.00     0.156 HD
ENDBRANCH   1   7
BRANCH   6  10
HETATM   10  N   LIG     1      19.103  36.702  19.330  1.00  0.00    -0.397 N 
HETATM   11  H   LIG     1      18.589  36.307  18.511  1.00  0.00     0.156 HD
HETATM   12  H   LIG     1      20.135  36.566  19.344  1.00  0.00     0.156 HD
ENDBRANCH   6  10
TORSDOF 2
ENDMDL
MODEL 8
REMARK VINA RESULT:      -5.0      4.018      5.397
REMARK  2 active torsions:
REMARK  status: ('A' for Active; 'I' for Inactive)
REMARK    1  A    between atoms: N_1  and  C_2 
REMARK    2  A    between atoms: C_7  and  N_8 
ROOT
HETATM    1  C   LIG     1      17.620  37.226  21.190  1.00  0.00     0.052 A 
HETATM    2  C   LIG     1      18.386  36.712  20.130  1.00  0.00     0.031 A 
HETATM    3  C   LIG     1      19.336  37.507  19.487  1.00  0.00     0.002 A 
HETATM    4  C   LIG     1      19.535  38.826  19.896  1.00  0.00     0.002 A 
HETATM    5  C   LIG     1      18.790  39.349  20.955  1.00  0.00     0.031 A 
HETATM    6  C   LIG     1      17.838  38.560  21.620  1.00  0.00     0.052 A 
ENDROOT
BRANCH   1   7
HETATM    7  N   LIG     1      16.623  36.386  21.788  1.00  0.00    -0.397 N 
HETATM    8  H   LIG     1      16.783  35.376  21.990  1.00  0.00     0.156 HD
HETATM    9  H   LIG     1      15.725  36.797  22.130  1.00  0.00     0.156 HD
ENDBRANCH   1   7
BRANCH   6  10
HETATM   10  N   LIG     1      17.131  39.126  22.732  1.00  0.00    -0.397 N 
HETATM   11  H   LIG     1      16.888  38.533  23.558  1.00  0.00     0.156 HD
HETATM   12  H   LIG     1      16.753  40.096  22.725  1.00  0.00     0.156 HD
ENDBRANCH   6  10
TORSDOF 2
ENDMDL
MODEL 9
REMARK VINA RESULT:      -5.0     10.970     12.192
REMARK  2 active torsions:
REMARK  status: ('A' for Active; 'I' for Inactive)
REMARK    1  A    between atoms: N_1  and  C_2 
REMARK    2  A    between atoms: C_7  and  N_8 
ROOT
HETATM    1  C   LIG     1      13.461  30.580  15.760  1.00  0.00     0.052 A 
HETATM    2  C   LIG     1      14.344  31.602  16.149  1.00  0.00     0.031 A 
HETATM    3  C   LIG     1      15.481  31.888  15.390  1.00  0.00     0.002 A 
HETATM    4  C   LIG     1      15.750  31.157  14.233  1.00  0.00     0.002 A 
HETATM    5  C   LIG     1      14.878  30.146  13.827  1.00  0.00     0.031 A 
HETATM    6  C   LIG     1      13.724  29.852  14.571  1.00  0.00     0.052 A 
ENDROOT
BRANCH   1   7
HETATM    7  N   LIG     1      12.333  30.292  16.597  1.00  0.00    -0.397 N 
HETATM    8  H   LIG     1      11.462  29.849  16.236  1.00  0.00     0.156 HD
HETATM    9  H   LIG     1      12.393  30.435  17.630  1.00  0.00     0.156 HD
ENDBRANCH   1   7
BRANCH   6  10
HETATM   10  N   LIG     1      12.833  28.837  14.089  1.00  0.00    -0.397 N 
HETATM   11  H   LIG     1      13.168  28.131  13.394  1.00  0.00     0.156 HD
HETATM   12  H   LIG     1      11.820  28.815  14.327  1.00  0.00     0.156 HD
ENDBRANCH   6  10
TORSDOF 2
ENDMDL
MODEL 10
REMARK VINA RESULT:      -5.0     10.251     11.344
REMARK  2 active torsions:
REMARK  status: ('A' for Active; 'I' for Inactive)
REMARK    1  A    between atoms: N_1  and  C_2 
REMARK    2  A    between atoms: C_7  and  N_8 
ROOT
HETATM    1  C   LIG     1      14.021  31.499  16.398  1.00  0.00     0.052 A 
HETATM    2  C   LIG     1      13.404  30.432  15.723  1.00  0.00     0.031 A 
HETATM    3  C   LIG     1      13.941  29.936  14.534  1.00  0.00     0.002 A 
HETATM    4  C   LIG     1      15.102  30.499  14.004  1.00  0.00     0.002 A 
HETATM    5  C   LIG     1      15.734  31.552  14.667  1.00  0.00     0.031 A 
HETATM    6  C   LIG     1      15.214  32.057  15.870  1.00  0.00     0.052 A 
ENDROOT
BRANCH   1   7
HETATM    7  N   LIG     1      13.407  32.005  17.591  1.00  0.00    -0.397 N 
HETATM    8  H   LIG     1      13.348  33.022  17.807  1.00  0.00     0.156 HD
HETATM    9  H   LIG     1      12.907  31.357  18.241  1.00  0.00     0.156 HD
ENDBRANCH   1   7
BRANCH   6  10
HETATM   10  N   LIG     1      15.923  33.107  16.540  1.00  0.00    -0.397 N 
HETATM   11  H   LIG     1      16.959  33.195  16.431  1.00  0.00     0.156 HD
HETATM   12  H   LIG     1      15.468  33.752  17.219  1.00  0.00     0.156 HD
ENDBRANCH   6  10
TORSDOF 2
ENDMDL
MODEL 11
REMARK VINA RESULT:      -5.0      3.382      4.534
REMARK  2 active torsions:
REMARK  status: ('A' for Active; 'I' for Inactive)
REMARK    1  A    between atoms: N_1  and  C_2 
REMARK    2  A    between atoms: C_7  and  N_8 
ROOT
HETATM    1  C   LIG     1      17.312  38.069  22.336  1.00  0.00     0.052 A 
HETATM    2  C   LIG     1      16.837  36.765  22.115  1.00  0.00     0.031 A 
HETATM    3  C   LIG     1      17.280  36.022  21.019  1.00  0.00     0.002 A 
HETATM    4  C   LIG     1      18.204  36.572  20.130  1.00  0.00     0.002 A 
HETATM    5  C   LIG     1      18.694  37.862  20.340  1.00  0.00     0.031 A 
HETATM    6  C   LIG     1      18.268  38.619  21.444  1.00  0.00     0.052 A 
ENDROOT
BRANCH   1   7
HETATM    7  N   LIG     1      16.792  38.810  23.448  1.00  0.00    -0.397 N 
HETATM    8  H   LIG     1      15.818  38.692  23.798  1.00  0.00     0.156 HD
HETATM    9  H   LIG     1      17.421  39.429  24.007  1.00  0.00     0.156 HD
ENDBRANCH   1   7
BRANCH   6  10
HETATM   10  N   LIG     1      18.834  39.921  21.645  1.00  0.00    -0.397 N 
HETATM   11  H   LIG     1      19.516  40.084  22.420  1.00  0.00     0.156 HD
HETATM   12  H   LIG     1      18.529  40.759  21.107  1.00  0.00     0.156 HD
ENDBRANCH   6  10
TORSDOF 2
ENDMDL
MODEL 12
REMARK VINA RESULT:      -5.0     10.170     11.220
REMARK  2 active torsions:
REMARK  status: ('A' for Active; 'I' for Inactive)
REMARK    1  A    between atoms: N_1  and  C_2 
REMARK    2  A    between atoms: C_7  and  N_8 
ROOT
HETATM    1  C   LIG     1      15.229  32.118  15.925  1.00  0.00     0.052 A 
HETATM    2  C   LIG     1      15.790  31.641  14.729  1.00  0.00     0.031 A 
HETATM    3  C   LIG     1      15.196  30.585  14.034  1.00  0.00     0.002 A 
HETATM    4  C   LIG     1      14.033  29.993  14.526  1.00  0.00     0.002 A 
HETATM    5  C   LIG     1      13.457  30.461  15.708  1.00  0.00     0.031 A 
HETATM    6  C   LIG     1      14.034  31.529  16.413  1.00  0.00     0.052 A 
ENDROOT
BRANCH   1   7
HETATM    7  N   LIG     1      15.901  33.172  16.627  1.00  0.00    -0.397 N 
HETATM    8  H   LIG     1      16.716  33.685  16.229  1.00  0.00     0.156 HD
HETATM    9  H   LIG     1      15.522  33.525  17.535  1.00  0.00     0.156 HD
ENDBRANCH   1   7
BRANCH   6  10
HETATM   10  N   LIG     1      13.380  32.006  17.597  1.00  0.00    -0.397 N 
HETATM   11  H   LIG     1      13.889  32.023  18.509  1.00  0.00     0.156 HD
HETATM   12  H   LIG     1      12.370  32.258  17.620  1.00  0.00     0.156 HD
ENDBRANCH   6  10
TORSDOF 2
ENDMDL
MODEL 13
REMARK VINA RESULT:      -4.9      9.949     11.379
REMARK  2 active torsions:
REMARK  status: ('A' for Active; 'I' for Inactive)
REMARK    1  A    between atoms: N_1  and  C_2 
REMARK    2  A    between atoms: C_7  and  N_8 
ROOT
HETATM    1  C   LIG     1      13.626  30.810  16.036  1.00  0.00     0.052 A 
HETATM    2  C   LIG     1      14.033  30.213  14.830  1.00  0.00     0.031 A 
HETATM    3  C   LIG     1      15.161  30.678  14.151  1.00  0.00     0.002 A 
HETATM    4  C   LIG     1      15.897  31.744  14.667  1.00  0.00     0.002 A 
HETATM    5  C   LIG     1      15.512  32.342  15.868  1.00  0.00     0.031 A 
HETATM    6  C   LIG     1      14.387  31.880  16.571  1.00  0.00     0.052 A 
ENDROOT
BRANCH   1   7
HETATM    7  N   LIG     1      12.434  30.329  16.672  1.00  0.00    -0.397 N 
HETATM    8  H   LIG     1      12.437  29.537  17.349  1.00  0.00     0.156 HD
HETATM    9  H   LIG     1      11.529  30.833  16.543  1.00  0.00     0.156 HD
ENDBRANCH   1   7
BRANCH   6  10
HETATM   10  N   LIG     1      14.059  32.495  17.824  1.00  0.00    -0.397 N 
HETATM   11  H   LIG     1      13.452  33.345  17.850  1.00  0.00     0.156 HD
HETATM   12  H   LIG     1      14.475  32.189  18.729  1.00  0.00     0.156 HD
ENDBRANCH   6  10
TORSDOF 2
ENDMDL
MODEL 14
REMARK VINA RESULT:      -4.9      9.152     10.367
REMARK  2 active torsions:
REMARK  status: ('A' for Active; 'I' for Inactive)
REMARK    1  A    between atoms: N_1  and  C_2 
REMARK    2  A    between atoms: C_7  and  N_8 
ROOT
HETATM    1  C   LIG     1      14.866  32.750  16.894  1.00  0.00     0.052 A 
HETATM    2  C   LIG     1      13.731  31.959  17.142  1.00  0.00     0.031 A 
HETATM    3  C   LIG     1      13.411  30.890  16.302  1.00  0.00     0.002 A 
HETATM    4  C   LIG     1      14.221  30.598  15.205  1.00  0.00     0.002 A 
HETATM    5  C   LIG     1      15.357  31.367  14.951  1.00  0.00     0.031 A 
HETATM    6  C   LIG     1      15.701  32.438  15.791  1.00  0.00     0.052 A 
ENDROOT
BRANCH   1   7
HETATM    7  N   LIG     1      15.127  33.865  17.757  1.00  0.00    -0.397 N 
HETATM    8  H   LIG     1      14.522  34.103  18.571  1.00  0.00     0.156 HD
HETATM    9  H   LIG     1      16.004  34.423  17.645  1.00  0.00     0.156 HD
ENDBRANCH   1   7
BRANCH   6  10
HETATM   10  N   LIG     1      16.903  33.170  15.517  1.00  0.00    -0.397 N 
HETATM   11  H   LIG     1      17.638  33.270  16.254  1.00  0.00     0.156 HD
HETATM   12  H   LIG     1      17.052  33.700  14.633  1.00  0.00     0.156 HD
ENDBRANCH   6  10
TORSDOF 2
ENDMDL
MODEL 15
REMARK VINA RESULT:      -4.9      9.176     10.487
REMARK  2 active torsions:
REMARK  status: ('A' for Active; 'I' for Inactive)
REMARK    1  A    between atoms: N_1  and  C_2 
REMARK    2  A    between atoms: C_7  and  N_8 
ROOT
HETATM    1  C   LIG     1      15.753  32.512  15.735  1.00  0.00     0.052 A 
HETATM    2  C   LIG     1      15.435  31.418  14.913  1.00  0.00     0.031 A 
HETATM    3  C   LIG     1      14.308  30.636  15.172  1.00  0.00     0.002 A 
HETATM    4  C   LIG     1      13.483  30.937  16.255  1.00  0.00     0.002 A 
HETATM    5  C   LIG     1      13.778  32.027  17.076  1.00  0.00     0.031 A 
HETATM    6  C   LIG     1      14.901  32.832  16.824  1.00  0.00     0.052 A 
ENDROOT
BRANCH   1   7
HETATM    7  N   LIG     1      16.946  33.257  15.457  1.00  0.00    -0.397 N 
HETATM    8  H   LIG     1      17.364  33.318  14.505  1.00  0.00     0.156 HD
HETATM    9  H   LIG     1      17.383  33.848  16.200  1.00  0.00     0.156 HD
ENDBRANCH   1   7
BRANCH   6  10
HETATM   10  N   LIG     1      15.137  33.968  17.665  1.00  0.00    -0.397 N 
HETATM   11  H   LIG     1      14.561  34.834  17.554  1.00  0.00     0.156 HD
HETATM   12  H   LIG     1      15.930  34.018  18.338  1.00  0.00     0.156 HD
ENDBRANCH   6  10
TORSDOF 2
ENDMDL
MODEL 16
REMARK VINA RESULT:      -4.8     11.198     12.207
REMARK  2 active torsions:
REMARK  status: ('A' for Active; 'I' for Inactive)
REMARK    1  A    between atoms: N_1  and  C_2 
REMARK    2  A    between atoms: C_7  and  N_8 
ROOT
HETATM    1  C   LIG     1      13.458  29.986  14.835  1.00  0.00     0.052 A 
HETATM    2  C   LIG     1      12.869  30.569  15.970  1.00  0.00     0.031 A 
HETATM    3  C   LIG     1      13.533  31.569  16.683  1.00  0.00     0.002 A 
HETATM    4  C   LIG     1      14.793  32.000  16.270  1.00  0.00     0.002 A 
HETATM    5  C   LIG     1      15.388  31.440  15.139  1.00  0.00     0.031 A 
HETATM    6  C   LIG     1      14.730  30.441  14.403  1.00  0.00     0.052 A 
ENDROOT
BRANCH   1   7
HETATM    7  N   LIG     1      12.758  28.930  14.164  1.00  0.00    -0.397 N 
HETATM    8  H   LIG     1      13.213  28.031  13.899  1.00  0.00     0.156 HD
HETATM    9  H   LIG     1      11.727  28.999  14.005  1.00  0.00     0.156 HD
ENDBRANCH   1   7
BRANCH   6  10
HETATM   10  N   LIG     1      15.360  29.929  13.221  1.00  0.00    -0.397 N 
HETATM   11  H   LIG     1      15.377  28.900  13.039  1.00  0.00     0.156 HD
HETATM   12  H   LIG     1      15.895  30.530  12.562  1.00  0.00     0.156 HD
ENDBRANCH   6  10
TORSDOF 2
ENDMDL
MODEL 17
REMARK VINA RESULT:      -4.8     11.151     12.103
REMARK  2 active torsions:
REMARK  status: ('A' for Active; 'I' for Inactive)
REMARK    1  A    between atoms: N_1  and  C_2 
REMARK    2  A    between atoms: C_7  and  N_8 
ROOT
HETATM    1  C   LIG     1      14.737  30.509  14.415  1.00  0.00     0.052 A 
HETATM    2  C   LIG     1      15.386  31.514  15.152  1.00  0.00     0.031 A 
HETATM    3  C   LIG     1      14.798  32.048  16.300  1.00  0.00     0.002 A 
HETATM    4  C   LIG     1      13.553  31.586  16.726  1.00  0.00     0.002 A 
HETATM    5  C   LIG     1      12.898  30.582  16.011  1.00  0.00     0.031 A 
HETATM    6  C   LIG     1      13.481  30.025  14.860  1.00  0.00     0.052 A 
ENDROOT
BRANCH   1   7
HETATM    7  N   LIG     1      15.359  30.025  13.217  1.00  0.00    -0.397 N 
HETATM    8  H   LIG     1      15.921  29.147  13.189  1.00  0.00     0.156 HD
HETATM    9  H   LIG     1      15.182  30.499  12.303  1.00  0.00     0.156 HD
ENDBRANCH   1   7
BRANCH   6  10
HETATM   10  N   LIG     1      12.792  28.962  14.186  1.00  0.00    -0.397 N 
HETATM   11  H   LIG     1      13.311  28.329  13.536  1.00  0.00     0.156 HD
HETATM   12  H   LIG     1      11.760  28.837  14.237  1.00  0.00     0.156 HD
ENDBRANCH   6  10
TORSDOF 2
ENDMDL
MODEL 18
REMARK VINA RESULT:      -4.8      3.716      4.774
REMARK  2 active torsions:
REMARK  status: ('A' for Active; 'I' for Inactive)
REMARK    1  A    between atoms: N_1  and  C_2 
REMARK    2  A    between atoms: C_7  and  N_8 
ROOT
HETATM    1  C   LIG     1      17.375  36.803  21.281  1.00  0.00     0.052 A 
HETATM    2  C   LIG     1      16.894  37.596  22.337  1.00  0.00     0.031 A 
HETATM    3  C   LIG     1      17.393  38.883  22.546  1.00  0.00     0.002 A 
HETATM    4  C   LIG     1      18.379  39.395  21.702  1.00  0.00     0.002 A 
HETATM    5  C   LIG     1      18.861  38.625  20.642  1.00  0.00     0.031 A 
HETATM    6  C   LIG     1      18.362  37.332  20.411  1.00  0.00     0.052 A 
ENDROOT
BRANCH   1   7
HETATM    7  N   LIG     1      16.866  35.470  21.136  1.00  0.00    -0.397 N 
HETATM    8  H   LIG     1      17.463  34.623  21.248  1.00  0.00     0.156 HD
HETATM    9  H   LIG     1      15.842  35.310  21.005  1.00  0.00     0.156 HD
ENDBRANCH   1   7
BRANCH   6  10
HETATM   10  N   LIG     1      18.854  36.597  19.282  1.00  0.00    -0.397 N 
HETATM   11  H   LIG     1      19.506  37.050  18.603  1.00  0.00     0.156 HD
HETATM   12  H   LIG     1      18.518  35.641  19.041  1.00  0.00     0.156 HD
ENDBRANCH   6  10
TORSDOF 2
ENDMDL
MODEL 19
REMARK VINA RESULT:      -4.8     10.691     11.966
REMARK  2 active torsions:
REMARK  status: ('A' for Active; 'I' for Inactive)
REMARK    1  A    between atoms: N_1  and  C_2 
REMARK    2  A    between atoms: C_7  and  N_8 
ROOT
HETATM    1  C   LIG     1      14.136  30.186  14.682  1.00  0.00     0.052 A 
HETATM    2  C   LIG     1      15.303  30.687  14.079  1.00  0.00     0.031 A 
HETATM    3  C   LIG     1      15.989  31.764  14.642  1.00  0.00     0.002 A 
HETATM    4  C   LIG     1      15.519  32.356  15.814  1.00  0.00     0.002 A 
HETATM    5  C   LIG     1      14.367  31.865  16.431  1.00  0.00     0.031 A 
HETATM    6  C   LIG     1      13.670  30.774  15.885  1.00  0.00     0.052 A 
ENDROOT
BRANCH   1   7
HETATM    7  N   LIG     1      13.440  29.109  14.041  1.00  0.00    -0.397 N 
HETATM    8  H   LIG     1      12.409  29.114  13.891  1.00  0.00     0.156 HD
HETATM    9  H   LIG     1      13.973  28.318  13.614  1.00  0.00     0.156 HD
ENDBRANCH   1   7
BRANCH   6  10
HETATM   10  N   LIG     1      12.520  30.275  16.580  1.00  0.00    -0.397 N 
HETATM   11  H   LIG     1      12.636  29.642  17.404  1.00  0.00     0.156 HD
HETATM   12  H   LIG     1      11.546  30.437  16.248  1.00  0.00     0.156 HD
ENDBRANCH   6  10
TORSDOF 2
ENDMDL
MODEL 20
REMARK VINA RESULT:      -4.6      1.840      3.158
REMARK  2 active torsions:
REMARK  status: ('A' for Active; 'I' for Inactive)
REMARK    1  A    between atoms: N_1  and  C_2 
REMARK    2  A    between atoms: C_7  and  N_8 
ROOT
HETATM    1  C   LIG     1      17.025  36.114  23.348  1.00  0.00     0.052 A 
HETATM    2  C   LIG     1      16.991  37.374  22.726  1.00  0.00     0.031 A 
HETATM    3  C   LIG     1      17.226  38.537  23.462  1.00  0.00     0.002 A 
HETATM    4  C   LIG     1      17.498  38.457  24.827  1.00  0.00     0.002 A 
HETATM    5  C   LIG     1      17.545  37.213  25.458  1.00  0.00     0.031 A 
HETATM    6  C   LIG     1      17.322  36.031  24.732  1.00  0.00     0.052 A 
ENDROOT
BRANCH   1   7
HETATM    7  N   LIG     1      16.730  34.952  22.561  1.00  0.00    -0.397 N 
HETATM    8  H   LIG     1      17.367  34.129  22.510  1.00  0.00     0.156 HD
HETATM    9  H   LIG     1      15.805  34.860  22.084  1.00  0.00     0.156 HD
ENDBRANCH   1   7
BRANCH   6  10
HETATM   10  N   LIG     1      17.428  34.774  25.413  1.00  0.00    -0.397 N 
HETATM   11  H   LIG     1      16.566  34.264  25.713  1.00  0.00     0.156 HD
HETATM   12  H   LIG     1      18.339  34.372  25.717  1.00  0.00     0.156 HD
ENDBRANCH   6  10
TORSDOF 2
ENDMDL
