REMARK  0 active torsions:
REMARK  status: ('A' for Active; 'I' for Inactive)
ROOT
HETATM    1 CL   LIG     1       2.660  -1.545  -0.155  1.00  0.00    -0.083 Cl
HETATM    2  C   LIG     1       1.137  -0.673  -0.255  1.00  0.00     0.055 A 
HETATM    3  C   LIG     1       1.103   0.710  -0.508  1.00  0.00     0.055 A 
HETATM    4 CL   LIG     1       2.583   1.632  -0.738  1.00  0.00    -0.083 Cl
HETATM    5  C   LIG     1      -0.128   1.373  -0.581  1.00  0.00     0.025 A 
HETATM    6  C   LIG     1      -1.320   0.665  -0.403  1.00  0.00     0.002 A 
HETATM    7  C   LIG     1      -1.287  -0.709  -0.151  1.00  0.00     0.002 A 
HETATM    8  C   LIG     1      -0.061  -1.377  -0.077  1.00  0.00     0.025 A 
ENDROOT
TORSDOF 0
