MODEL 1
REMARK VINA RESULT:      -6.2      0.000      0.000
REMARK  1 active torsions:
REMARK  status: ('A' for Active; 'I' for Inactive)
REMARK    1  A    between atoms: C_3  and  N_4 
ROOT
HETATM    1  C   LIG     1      16.625  35.873  22.771  1.00  0.00     0.050 C 
HETATM    2  C   LIG     1      17.172  36.006  24.166  1.00  0.00    -0.036 A 
HETATM    3  C   LIG     1      17.347  37.275  24.772  1.00  0.00     0.031 A 
HETATM    4  C   LIG     1      17.860  37.352  26.077  1.00  0.00     0.029 A 
HETATM    5  C   LIG     1      18.199  36.192  26.776  1.00  0.00     0.002 A 
HETATM    6  C   LIG     1      18.028  34.942  26.181  1.00  0.00     0.001 A 
HETATM    7  C   LIG     1      17.519  34.848  24.885  1.00  0.00     0.009 A 
ENDROOT
BRANCH   3   8
HETATM    8  N   LIG     1      17.010  38.488  24.085  1.00  0.00    -0.399 N 
HETATM    9  H   LIG     1      16.915  39.386  24.610  1.00  0.00     0.156 HD
HETATM   10  H   LIG     1      16.850  38.518  23.054  1.00  0.00     0.156 HD
ENDBRANCH   3   8
TORSDOF 1
ENDMDL
MODEL 2
REMARK VINA RESULT:      -6.0      0.989      2.750
REMARK  1 active torsions:
REMARK  status: ('A' for Active; 'I' for Inactive)
REMARK    1  A    between atoms: C_3  and  N_4 
ROOT
HETATM    1  C   LIG     1      18.053  35.791  26.602  1.00  0.00     0.050 C 
HETATM    2  C   LIG     1      17.540  36.077  25.217  1.00  0.00    -0.036 A 
HETATM    3  C   LIG     1      17.194  37.391  24.814  1.00  0.00     0.031 A 
HETATM    4  C   LIG     1      16.720  37.612  23.511  1.00  0.00     0.029 A 
HETATM    5  C   LIG     1      16.586  36.549  22.615  1.00  0.00     0.002 A 
HETATM    6  C   LIG     1      16.925  35.255  23.009  1.00  0.00     0.001 A 
HETATM    7  C   LIG     1      17.399  35.019  24.301  1.00  0.00     0.009 A 
ENDROOT
BRANCH   3   8
HETATM    8  N   LIG     1      17.318  38.506  25.707  1.00  0.00    -0.399 N 
HETATM    9  H   LIG     1      17.162  38.383  26.734  1.00  0.00     0.156 HD
HETATM   10  H   LIG     1      17.563  39.464  25.373  1.00  0.00     0.156 HD
ENDBRANCH   3   8
TORSDOF 1
ENDMDL
MODEL 3
REMARK VINA RESULT:      -5.8      1.452      2.277
REMARK  1 active torsions:
REMARK  status: ('A' for Active; 'I' for Inactive)
REMARK    1  A    between atoms: C_3  and  N_4 
ROOT
HETATM    1  C   LIG     1      16.992  38.105  23.226  1.00  0.00     0.050 C 
HETATM    2  C   LIG     1      17.347  37.109  24.297  1.00  0.00    -0.036 A 
HETATM    3  C   LIG     1      17.188  35.716  24.091  1.00  0.00     0.031 A 
HETATM    4  C   LIG     1      17.532  34.823  25.118  1.00  0.00     0.029 A 
HETATM    5  C   LIG     1      18.027  35.296  26.334  1.00  0.00     0.002 A 
HETATM    6  C   LIG     1      18.183  36.667  26.540  1.00  0.00     0.001 A 
HETATM    7  C   LIG     1      17.846  37.568  25.529  1.00  0.00     0.009 A 
ENDROOT
BRANCH   3   8
HETATM    8  N   LIG     1      16.684  35.193  22.854  1.00  0.00    -0.399 N 
HETATM    9  H   LIG     1      16.094  35.788  22.229  1.00  0.00     0.156 HD
HETATM   10  H   LIG     1      16.881  34.218  22.539  1.00  0.00     0.156 HD
ENDBRANCH   3   8
TORSDOF 1
ENDMDL
MODEL 4
REMARK VINA RESULT:      -5.6      3.542      4.330
REMARK  1 active torsions:
REMARK  status: ('A' for Active; 'I' for Inactive)
REMARK    1  A    between atoms: C_3  and  N_4 
ROOT
HETATM    1  C   LIG     1      19.220  36.968  19.429  1.00  0.00     0.050 C 
HETATM    2  C   LIG     1      18.310  37.366  20.560  1.00  0.00    -0.036 A 
HETATM    3  C   LIG     1      18.314  38.683  21.081  1.00  0.00     0.031 A 
HETATM    4  C   LIG     1      17.448  39.010  22.136  1.00  0.00     0.029 A 
HETATM    5  C   LIG     1      16.586  38.051  22.672  1.00  0.00     0.002 A 
HETATM    6  C   LIG     1      16.581  36.753  22.160  1.00  0.00     0.001 A 
HETATM    7  C   LIG     1      17.437  36.411  21.111  1.00  0.00     0.009 A 
ENDROOT
BRANCH   3   8
HETATM    8  N   LIG     1      19.184  39.695  20.557  1.00  0.00    -0.399 N 
HETATM    9  H   LIG     1      20.157  39.801  20.926  1.00  0.00     0.156 HD
HETATM   10  H   LIG     1      18.885  40.352  19.802  1.00  0.00     0.156 HD
ENDBRANCH   3   8
TORSDOF 1
ENDMDL
MODEL 5
REMARK VINA RESULT:      -5.6      3.825      5.444
REMARK  1 active torsions:
REMARK  status: ('A' for Active; 'I' for Inactive)
REMARK    1  A    between atoms: C_3  and  N_4 
ROOT
HETATM    1  C   LIG     1      16.767  38.179  22.737  1.00  0.00     0.050 C 
HETATM    2  C   LIG     1      17.739  38.094  21.592  1.00  0.00    -0.036 A 
HETATM    3  C   LIG     1      17.851  36.923  20.803  1.00  0.00     0.031 A 
HETATM    4  C   LIG     1      18.771  36.889  19.743  1.00  0.00     0.029 A 
HETATM    5  C   LIG     1      19.574  37.997  19.464  1.00  0.00     0.002 A 
HETATM    6  C   LIG     1      19.467  39.151  20.240  1.00  0.00     0.001 A 
HETATM    7  C   LIG     1      18.556  39.201  21.297  1.00  0.00     0.009 A 
ENDROOT
BRANCH   3   8
HETATM    8  N   LIG     1      17.043  35.766  21.059  1.00  0.00    -0.399 N 
HETATM    9  H   LIG     1      16.660  35.589  22.016  1.00  0.00     0.156 HD
HETATM   10  H   LIG     1      16.812  35.071  20.316  1.00  0.00     0.156 HD
ENDBRANCH   3   8
TORSDOF 1
ENDMDL
MODEL 6
REMARK VINA RESULT:      -5.5      3.445      4.666
REMARK  1 active torsions:
REMARK  status: ('A' for Active; 'I' for Inactive)
REMARK    1  A    between atoms: C_3  and  N_4 
ROOT
HETATM    1  C   LIG     1      19.063  39.314  20.520  1.00  0.00     0.050 C 
HETATM    2  C   LIG     1      18.226  38.219  21.124  1.00  0.00    -0.036 A 
HETATM    3  C   LIG     1      18.094  36.958  20.494  1.00  0.00     0.031 A 
HETATM    4  C   LIG     1      17.303  35.965  21.094  1.00  0.00     0.029 A 
HETATM    5  C   LIG     1      16.649  36.213  22.302  1.00  0.00     0.002 A 
HETATM    6  C   LIG     1      16.777  37.454  22.924  1.00  0.00     0.001 A 
HETATM    7  C   LIG     1      17.560  38.452  22.341  1.00  0.00     0.009 A 
ENDROOT
BRANCH   3   8
HETATM    8  N   LIG     1      18.751  36.667  19.252  1.00  0.00    -0.399 N 
HETATM    9  H   LIG     1      19.653  37.135  19.008  1.00  0.00     0.156 HD
HETATM   10  H   LIG     1      18.360  35.991  18.559  1.00  0.00     0.156 HD
ENDBRANCH   3   8
TORSDOF 1
ENDMDL
MODEL 7
REMARK VINA RESULT:      -5.3      3.655      4.649
REMARK  1 active torsions:
REMARK  status: ('A' for Active; 'I' for Inactive)
REMARK    1  A    between atoms: C_3  and  N_4 
ROOT
HETATM    1  C   LIG     1      19.151  36.952  19.428  1.00  0.00     0.050 C 
HETATM    2  C   LIG     1      18.337  37.440  20.595  1.00  0.00    -0.036 A 
HETATM    3  C   LIG     1      17.276  36.668  21.129  1.00  0.00     0.031 A 
HETATM    4  C   LIG     1      16.543  37.164  22.220  1.00  0.00     0.029 A 
HETATM    5  C   LIG     1      16.852  38.406  22.777  1.00  0.00     0.002 A 
HETATM    6  C   LIG     1      17.896  39.168  22.252  1.00  0.00     0.001 A 
HETATM    7  C   LIG     1      18.634  38.690  21.168  1.00  0.00     0.009 A 
ENDROOT
BRANCH   3   8
HETATM    8  N   LIG     1      16.930  35.388  20.583  1.00  0.00    -0.399 N 
HETATM    9  H   LIG     1      16.123  34.848  20.970  1.00  0.00     0.156 HD
HETATM   10  H   LIG     1      17.461  34.957  19.795  1.00  0.00     0.156 HD
ENDBRANCH   3   8
TORSDOF 1
ENDMDL
MODEL 8
REMARK VINA RESULT:      -5.2      1.834      3.718
REMARK  1 active torsions:
REMARK  status: ('A' for Active; 'I' for Inactive)
REMARK    1  A    between atoms: C_3  and  N_4 
ROOT
HETATM    1  C   LIG     1      17.465  37.776  25.723  1.00  0.00     0.050 C 
HETATM    2  C   LIG     1      17.274  37.135  24.375  1.00  0.00    -0.036 A 
HETATM    3  C   LIG     1      17.190  35.728  24.233  1.00  0.00     0.031 A 
HETATM    4  C   LIG     1      17.011  35.173  22.956  1.00  0.00     0.029 A 
HETATM    5  C   LIG     1      16.916  35.994  21.831  1.00  0.00     0.002 A 
HETATM    6  C   LIG     1      16.999  37.380  21.969  1.00  0.00     0.001 A 
HETATM    7  C   LIG     1      17.176  37.948  23.231  1.00  0.00     0.009 A 
ENDROOT
BRANCH   3   8
HETATM    8  N   LIG     1      17.283  34.852  25.365  1.00  0.00    -0.399 N 
HETATM    9  H   LIG     1      17.683  33.892  25.261  1.00  0.00     0.156 HD
HETATM   10  H   LIG     1      16.961  35.135  26.317  1.00  0.00     0.156 HD
ENDBRANCH   3   8
TORSDOF 1
ENDMDL
MODEL 9
REMARK VINA RESULT:      -5.2      1.728      3.141
REMARK  1 active torsions:
REMARK  status: ('A' for Active; 'I' for Inactive)
REMARK    1  A    between atoms: C_3  and  N_4 
ROOT
HETATM    1  C   LIG     1      17.495  34.842  25.640  1.00  0.00     0.050 C 
HETATM    2  C   LIG     1      17.386  36.129  24.869  1.00  0.00    -0.036 A 
HETATM    3  C   LIG     1      17.085  36.138  23.485  1.00  0.00     0.031 A 
HETATM    4  C   LIG     1      16.992  37.363  22.806  1.00  0.00     0.029 A 
HETATM    5  C   LIG     1      17.195  38.567  23.483  1.00  0.00     0.002 A 
HETATM    6  C   LIG     1      17.492  38.561  24.846  1.00  0.00     0.001 A 
HETATM    7  C   LIG     1      17.587  37.352  25.536  1.00  0.00     0.009 A 
ENDROOT
BRANCH   3   8
HETATM    8  N   LIG     1      16.871  34.921  22.757  1.00  0.00    -0.399 N 
HETATM    9  H   LIG     1      16.953  33.996  23.235  1.00  0.00     0.156 HD
HETATM   10  H   LIG     1      16.630  34.914  21.741  1.00  0.00     0.156 HD
ENDBRANCH   3   8
TORSDOF 1
ENDMDL
MODEL 10
REMARK VINA RESULT:      -5.2      2.147      3.463
REMARK  1 active torsions:
REMARK  status: ('A' for Active; 'I' for Inactive)
REMARK    1  A    between atoms: C_3  and  N_4 
ROOT
HETATM    1  C   LIG     1      17.978  39.180  21.526  1.00  0.00     0.050 C 
HETATM    2  C   LIG     1      17.582  37.790  21.946  1.00  0.00    -0.036 A 
HETATM    3  C   LIG     1      17.190  37.505  23.278  1.00  0.00     0.031 A 
HETATM    4  C   LIG     1      16.829  36.194  23.625  1.00  0.00     0.029 A 
HETATM    5  C   LIG     1      16.854  35.174  22.671  1.00  0.00     0.002 A 
HETATM    6  C   LIG     1      17.240  35.452  21.361  1.00  0.00     0.001 A 
HETATM    7  C   LIG     1      17.602  36.751  20.999  1.00  0.00     0.009 A 
ENDROOT
BRANCH   3   8
HETATM    8  N   LIG     1      17.153  38.527  24.284  1.00  0.00    -0.399 N 
HETATM    9  H   LIG     1      17.085  38.272  25.295  1.00  0.00     0.156 HD
HETATM   10  H   LIG     1      17.190  39.543  24.048  1.00  0.00     0.156 HD
ENDBRANCH   3   8
TORSDOF 1
ENDMDL
MODEL 11
REMARK VINA RESULT:      -5.1      9.766     11.107
REMARK  1 active torsions:
REMARK  status: ('A' for Active; 'I' for Inactive)
REMARK    1  A    between atoms: C_3  and  N_4 
ROOT
HETATM    1  C   LIG     1      13.968  29.511  14.310  1.00  0.00     0.050 C 
HETATM    2  C   LIG     1      14.360  30.688  15.161  1.00  0.00    -0.036 A 
HETATM    3  C   LIG     1      13.599  31.065  16.295  1.00  0.00     0.031 A 
HETATM    4  C   LIG     1      14.003  32.171  17.060  1.00  0.00     0.029 A 
HETATM    5  C   LIG     1      15.144  32.896  16.713  1.00  0.00     0.002 A 
HETATM    6  C   LIG     1      15.895  32.527  15.597  1.00  0.00     0.001 A 
HETATM    7  C   LIG     1      15.507  31.430  14.825  1.00  0.00     0.009 A 
ENDROOT
BRANCH   3   8
HETATM    8  N   LIG     1      12.422  30.344  16.682  1.00  0.00    -0.399 N 
HETATM    9  H   LIG     1      11.498  30.830  16.741  1.00  0.00     0.156 HD
HETATM   10  H   LIG     1      12.442  29.327  16.915  1.00  0.00     0.156 HD
ENDBRANCH   3   8
TORSDOF 1
ENDMDL
MODEL 12
REMARK VINA RESULT:      -5.1      9.398     11.385
REMARK  1 active torsions:
REMARK  status: ('A' for Active; 'I' for Inactive)
REMARK    1  A    between atoms: C_3  and  N_4 
ROOT
HETATM    1  C   LIG     1      15.295  33.339  16.698  1.00  0.00     0.050 C 
HETATM    2  C   LIG     1      14.863  32.117  15.935  1.00  0.00    -0.036 A 
HETATM    3  C   LIG     1      13.661  31.435  16.251  1.00  0.00     0.031 A 
HETATM    4  C   LIG     1      13.297  30.299  15.512  1.00  0.00     0.029 A 
HETATM    5  C   LIG     1      14.108  29.838  14.472  1.00  0.00     0.002 A 
HETATM    6  C   LIG     1      15.291  30.507  14.159  1.00  0.00     0.001 A 
HETATM    7  C   LIG     1      15.668  31.639  14.885  1.00  0.00     0.009 A 
ENDROOT
BRANCH   3   8
HETATM    8  N   LIG     1      12.804  31.879  17.312  1.00  0.00    -0.399 N 
HETATM    9  H   LIG     1      11.771  31.940  17.168  1.00  0.00     0.156 HD
HETATM   10  H   LIG     1      13.173  32.153  18.249  1.00  0.00     0.156 HD
ENDBRANCH   3   8
TORSDOF 1
ENDMDL
MODEL 13
REMARK VINA RESULT:      -5.0      9.605     11.442
REMARK  1 active torsions:
REMARK  status: ('A' for Active; 'I' for Inactive)
REMARK    1  A    between atoms: C_3  and  N_4 
ROOT
HETATM    1  C   LIG     1      13.885  31.879  17.424  1.00  0.00     0.050 C 
HETATM    2  C   LIG     1      14.423  31.476  16.078  1.00  0.00    -0.036 A 
HETATM    3  C   LIG     1      15.483  32.188  15.463  1.00  0.00     0.031 A 
HETATM    4  C   LIG     1      15.953  31.777  14.206  1.00  0.00     0.029 A 
HETATM    5  C   LIG     1      15.386  30.677  13.561  1.00  0.00     0.002 A 
HETATM    6  C   LIG     1      14.342  29.975  14.163  1.00  0.00     0.001 A 
HETATM    7  C   LIG     1      13.862  30.371  15.413  1.00  0.00     0.009 A 
ENDROOT
BRANCH   3   8
HETATM    8  N   LIG     1      16.090  33.323  16.096  1.00  0.00    -0.399 N 
HETATM    9  H   LIG     1      16.690  33.200  16.943  1.00  0.00     0.156 HD
HETATM   10  H   LIG     1      15.957  34.296  15.743  1.00  0.00     0.156 HD
ENDBRANCH   3   8
TORSDOF 1
ENDMDL
MODEL 14
REMARK VINA RESULT:      -5.0     10.506     11.607
REMARK  1 active torsions:
REMARK  status: ('A' for Active; 'I' for Inactive)
REMARK    1  A    between atoms: C_3  and  N_4 
ROOT
HETATM    1  C   LIG     1      16.635  32.334  14.756  1.00  0.00     0.050 C 
HETATM    2  C   LIG     1      15.345  31.755  15.270  1.00  0.00    -0.036 A 
HETATM    3  C   LIG     1      14.685  30.703  14.589  1.00  0.00     0.031 A 
HETATM    4  C   LIG     1      13.483  30.192  15.105  1.00  0.00     0.029 A 
HETATM    5  C   LIG     1      12.938  30.713  16.280  1.00  0.00     0.002 A 
HETATM    6  C   LIG     1      13.586  31.749  16.952  1.00  0.00     0.001 A 
HETATM    7  C   LIG     1      14.781  32.268  16.453  1.00  0.00     0.009 A 
ENDROOT
BRANCH   3   8
HETATM    8  N   LIG     1      15.216  30.143  13.380  1.00  0.00    -0.399 N 
HETATM    9  H   LIG     1      16.248  30.052  13.246  1.00  0.00     0.156 HD
HETATM   10  H   LIG     1      14.603  29.813  12.602  1.00  0.00     0.156 HD
ENDBRANCH   3   8
TORSDOF 1
ENDMDL
MODEL 15
REMARK VINA RESULT:      -4.8     10.037     11.367
REMARK  1 active torsions:
REMARK  status: ('A' for Active; 'I' for Inactive)
REMARK    1  A    between atoms: C_3  and  N_4 
ROOT
HETATM    1  C   LIG     1      13.347  29.406  14.405  1.00  0.00     0.050 C 
HETATM    2  C   LIG     1      13.985  30.511  15.203  1.00  0.00    -0.036 A 
HETATM    3  C   LIG     1      15.088  31.243  14.698  1.00  0.00     0.031 A 
HETATM    4  C   LIG     1      15.652  32.266  15.478  1.00  0.00     0.029 A 
HETATM    5  C   LIG     1      15.135  32.564  16.740  1.00  0.00     0.002 A 
HETATM    6  C   LIG     1      14.050  31.843  17.239  1.00  0.00     0.001 A 
HETATM    7  C   LIG     1      13.478  30.823  16.477  1.00  0.00     0.009 A 
ENDROOT
BRANCH   3   8
HETATM    8  N   LIG     1      15.645  30.966  13.406  1.00  0.00    -0.399 N 
HETATM    9  H   LIG     1      15.522  30.025  12.967  1.00  0.00     0.156 HD
HETATM   10  H   LIG     1      16.185  31.678  12.867  1.00  0.00     0.156 HD
ENDBRANCH   3   8
TORSDOF 1
ENDMDL
MODEL 16
REMARK VINA RESULT:      -4.8     10.181     11.278
REMARK  1 active torsions:
REMARK  status: ('A' for Active; 'I' for Inactive)
REMARK    1  A    between atoms: C_3  and  N_4 
ROOT
HETATM    1  C   LIG     1      17.066  32.938  13.991  1.00  0.00     0.050 C 
HETATM    2  C   LIG     1      15.954  32.103  14.566  1.00  0.00    -0.036 A 
HETATM    3  C   LIG     1      15.371  32.412  15.819  1.00  0.00     0.031 A 
HETATM    4  C   LIG     1      14.335  31.604  16.317  1.00  0.00     0.029 A 
HETATM    5  C   LIG     1      13.879  30.505  15.587  1.00  0.00     0.002 A 
HETATM    6  C   LIG     1      14.452  30.198  14.353  1.00  0.00     0.001 A 
HETATM    7  C   LIG     1      15.483  30.991  13.844  1.00  0.00     0.009 A 
ENDROOT
BRANCH   3   8
HETATM    8  N   LIG     1      15.813  33.533  16.597  1.00  0.00    -0.399 N 
HETATM    9  H   LIG     1      15.508  34.502  16.350  1.00  0.00     0.156 HD
HETATM   10  H   LIG     1      16.444  33.426  17.421  1.00  0.00     0.156 HD
ENDBRANCH   3   8
TORSDOF 1
ENDMDL
MODEL 17
REMARK VINA RESULT:      -4.6      9.366     11.319
REMARK  1 active torsions:
REMARK  status: ('A' for Active; 'I' for Inactive)
REMARK    1  A    between atoms: C_3  and  N_4 
ROOT
HETATM    1  C   LIG     1      15.324  33.516  16.841  1.00  0.00     0.050 C 
HETATM    2  C   LIG     1      14.973  32.300  16.027  1.00  0.00    -0.036 A 
HETATM    3  C   LIG     1      15.718  31.942  14.876  1.00  0.00     0.031 A 
HETATM    4  C   LIG     1      15.354  30.799  14.147  1.00  0.00     0.029 A 
HETATM    5  C   LIG     1      14.268  30.017  14.546  1.00  0.00     0.002 A 
HETATM    6  C   LIG     1      13.533  30.368  15.678  1.00  0.00     0.001 A 
HETATM    7  C   LIG     1      13.881  31.502  16.415  1.00  0.00     0.009 A 
ENDROOT
BRANCH   3   8
HETATM    8  N   LIG     1      16.839  32.721  14.436  1.00  0.00    -0.399 N 
HETATM    9  H   LIG     1      17.050  32.815  13.416  1.00  0.00     0.156 HD
HETATM   10  H   LIG     1      17.473  33.211  15.103  1.00  0.00     0.156 HD
ENDBRANCH   3   8
TORSDOF 1
ENDMDL
MODEL 18
REMARK VINA RESULT:      -4.6      4.217      5.383
REMARK  1 active torsions:
REMARK  status: ('A' for Active; 'I' for Inactive)
REMARK    1  A    between atoms: C_3  and  N_4 
ROOT
HETATM    1  C   LIG     1      18.616  39.931  21.935  1.00  0.00     0.050 C 
HETATM    2  C   LIG     1      18.386  38.614  21.246  1.00  0.00    -0.036 A 
HETATM    3  C   LIG     1      19.084  38.268  20.063  1.00  0.00     0.031 A 
HETATM    4  C   LIG     1      18.838  37.027  19.453  1.00  0.00     0.029 A 
HETATM    5  C   LIG     1      17.913  36.137  20.003  1.00  0.00     0.002 A 
HETATM    6  C   LIG     1      17.224  36.476  21.167  1.00  0.00     0.001 A 
HETATM    7  C   LIG     1      17.457  37.706  21.786  1.00  0.00     0.009 A 
ENDROOT
BRANCH   3   8
HETATM    8  N   LIG     1      20.041  39.156  19.469  1.00  0.00    -0.399 N 
HETATM    9  H   LIG     1      20.691  38.814  18.725  1.00  0.00     0.156 HD
HETATM   10  H   LIG     1      20.124  40.157  19.753  1.00  0.00     0.156 HD
ENDBRANCH   3   8
TORSDOF 1
ENDMDL
MODEL 19
REMARK VINA RESULT:      -4.0      6.725      8.038
REMARK  1 active torsions:
REMARK  status: ('A' for Active; 'I' for Inactive)
REMARK    1  A    between atoms: C_3  and  N_4 
ROOT
HETATM    1  C   LIG     1      14.884  31.144  20.140  1.00  0.00     0.050 C 
HETATM    2  C   LIG     1      14.934  32.202  19.071  1.00  0.00    -0.036 A 
HETATM    3  C   LIG     1      15.388  33.514  19.352  1.00  0.00     0.031 A 
HETATM    4  C   LIG     1      15.418  34.469  18.323  1.00  0.00     0.029 A 
HETATM    5  C   LIG     1      15.006  34.135  17.031  1.00  0.00     0.002 A 
HETATM    6  C   LIG     1      14.559  32.844  16.753  1.00  0.00     0.001 A 
HETATM    7  C   LIG     1      14.522  31.882  17.764  1.00  0.00     0.009 A 
ENDROOT
BRANCH   3   8
HETATM    8  N   LIG     1      15.819  33.894  20.666  1.00  0.00    -0.399 N 
HETATM    9  H   LIG     1      16.733  34.382  20.803  1.00  0.00     0.156 HD
HETATM   10  H   LIG     1      15.248  33.699  21.518  1.00  0.00     0.156 HD
ENDBRANCH   3   8
TORSDOF 1
ENDMDL
MODEL 20
REMARK VINA RESULT:      -3.9      6.025      7.649
REMARK  1 active torsions:
REMARK  status: ('A' for Active; 'I' for Inactive)
REMARK    1  A    between atoms: C_3  and  N_4 
ROOT
HETATM    1  C   LIG     1      15.951  35.158  19.987  1.00  0.00     0.050 C 
HETATM    2  C   LIG     1      15.443  33.839  19.471  1.00  0.00    -0.036 A 
HETATM    3  C   LIG     1      15.232  33.620  18.088  1.00  0.00     0.031 A 
HETATM    4  C   LIG     1      14.756  32.373  17.651  1.00  0.00     0.029 A 
HETATM    5  C   LIG     1      14.491  31.353  18.568  1.00  0.00     0.002 A 
HETATM    6  C   LIG     1      14.697  31.568  19.930  1.00  0.00     0.001 A 
HETATM    7  C   LIG     1      15.170  32.801  20.381  1.00  0.00     0.009 A 
ENDROOT
BRANCH   3   8
HETATM    8  N   LIG     1      15.493  34.643  17.117  1.00  0.00    -0.399 N 
HETATM    9  H   LIG     1      16.445  35.067  17.038  1.00  0.00     0.156 HD
HETATM   10  H   LIG     1      14.756  34.996  16.467  1.00  0.00     0.156 HD
ENDBRANCH   3   8
TORSDOF 1
ENDMDL
