MODEL 1
REMARK VINA RESULT:      -6.1      0.000      0.000
REMARK  1 active torsions:
REMARK  status: ('A' for Active; 'I' for Inactive)
REMARK    1  A    between atoms: O_1  and  C_2 
ROOT
HETATM    1  C   LIG     1      17.483  37.564  25.542  1.00  0.00     0.087 A 
HETATM    2  C   LIG     1      18.145  36.839  26.544  1.00  0.00     0.038 A 
HETATM    3  C   LIG     1      18.283  35.452  26.432  1.00  0.00     0.003 A 
HETATM    4  C   LIG     1      17.763  34.784  25.320  1.00  0.00     0.002 A 
HETATM    5  C   LIG     1      17.103  35.502  24.320  1.00  0.00     0.026 A 
HETATM    6  C   LIG     1      16.961  36.891  24.427  1.00  0.00     0.067 A 
HETATM    7 CL   LIG     1      16.127  37.776  23.158  1.00  0.00    -0.081 Cl
ENDROOT
BRANCH   1   8
HETATM    8  O   LIG     1      17.342  38.947  25.650  1.00  0.00    -0.359 OA
HETATM    9  H   LIG     1      18.039  39.581  25.276  1.00  0.00     0.217 HD
ENDBRANCH   1   8
TORSDOF 1
ENDMDL
MODEL 2
REMARK VINA RESULT:      -5.8      1.927      2.735
REMARK  1 active torsions:
REMARK  status: ('A' for Active; 'I' for Inactive)
REMARK    1  A    between atoms: O_1  and  C_2 
ROOT
HETATM    1  C   LIG     1      17.155  37.523  24.752  1.00  0.00     0.087 A 
HETATM    2  C   LIG     1      16.682  37.635  23.436  1.00  0.00     0.038 A 
HETATM    3  C   LIG     1      16.573  36.498  22.630  1.00  0.00     0.003 A 
HETATM    4  C   LIG     1      16.933  35.245  23.134  1.00  0.00     0.002 A 
HETATM    5  C   LIG     1      17.404  35.128  24.445  1.00  0.00     0.026 A 
HETATM    6  C   LIG     1      17.517  36.264  25.255  1.00  0.00     0.067 A 
HETATM    7 CL   LIG     1      18.112  36.097  26.901  1.00  0.00    -0.081 Cl
ENDROOT
BRANCH   1   8
HETATM    8  O   LIG     1      17.266  38.654  25.559  1.00  0.00    -0.359 OA
HETATM    9  H   LIG     1      16.613  38.834  26.313  1.00  0.00     0.217 HD
ENDBRANCH   1   8
TORSDOF 1
ENDMDL
MODEL 3
REMARK VINA RESULT:      -5.6      1.701      2.407
REMARK  1 active torsions:
REMARK  status: ('A' for Active; 'I' for Inactive)
REMARK    1  A    between atoms: O_1  and  C_2 
ROOT
HETATM    1  C   LIG     1      17.165  35.707  24.125  1.00  0.00     0.087 A 
HETATM    2  C   LIG     1      17.536  34.824  25.150  1.00  0.00     0.038 A 
HETATM    3  C   LIG     1      18.057  35.320  26.349  1.00  0.00     0.003 A 
HETATM    4  C   LIG     1      18.210  36.698  26.530  1.00  0.00     0.002 A 
HETATM    5  C   LIG     1      17.843  37.581  25.511  1.00  0.00     0.026 A 
HETATM    6  C   LIG     1      17.321  37.090  24.309  1.00  0.00     0.067 A 
HETATM    7 CL   LIG     1      16.864  38.217  23.039  1.00  0.00    -0.081 Cl
ENDROOT
BRANCH   1   8
HETATM    8  O   LIG     1      16.645  35.218  22.928  1.00  0.00    -0.359 OA
HETATM    9  H   LIG     1      15.800  34.658  22.906  1.00  0.00     0.217 HD
ENDBRANCH   1   8
TORSDOF 1
ENDMDL
MODEL 4
REMARK VINA RESULT:      -5.6      1.193      1.638
REMARK  1 active torsions:
REMARK  status: ('A' for Active; 'I' for Inactive)
REMARK    1  A    between atoms: O_1  and  C_2 
ROOT
HETATM    1  C   LIG     1      17.132  37.444  24.762  1.00  0.00     0.087 A 
HETATM    2  C   LIG     1      17.322  36.177  25.332  1.00  0.00     0.038 A 
HETATM    3  C   LIG     1      17.266  35.031  24.533  1.00  0.00     0.003 A 
HETATM    4  C   LIG     1      17.022  35.146  23.161  1.00  0.00     0.002 A 
HETATM    5  C   LIG     1      16.833  36.406  22.588  1.00  0.00     0.026 A 
HETATM    6  C   LIG     1      16.887  37.556  23.384  1.00  0.00     0.067 A 
HETATM    7 CL   LIG     1      16.646  39.133  22.645  1.00  0.00    -0.081 Cl
ENDROOT
BRANCH   1   8
HETATM    8  O   LIG     1      17.186  38.589  25.555  1.00  0.00    -0.359 OA
HETATM    9  H   LIG     1      16.445  39.281  25.539  1.00  0.00     0.217 HD
ENDBRANCH   1   8
TORSDOF 1
ENDMDL
MODEL 5
REMARK VINA RESULT:      -5.4      1.601      1.965
REMARK  1 active torsions:
REMARK  status: ('A' for Active; 'I' for Inactive)
REMARK    1  A    between atoms: O_1  and  C_2 
ROOT
HETATM    1  C   LIG     1      17.111  36.994  23.914  1.00  0.00     0.087 A 
HETATM    2  C   LIG     1      17.604  37.582  25.088  1.00  0.00     0.038 A 
HETATM    3  C   LIG     1      18.006  36.779  26.160  1.00  0.00     0.003 A 
HETATM    4  C   LIG     1      17.918  35.387  26.064  1.00  0.00     0.002 A 
HETATM    5  C   LIG     1      17.428  34.797  24.896  1.00  0.00     0.026 A 
HETATM    6  C   LIG     1      17.024  35.596  23.820  1.00  0.00     0.067 A 
HETATM    7 CL   LIG     1      16.409  34.835  22.360  1.00  0.00    -0.081 Cl
ENDROOT
BRANCH   1   8
HETATM    8  O   LIG     1      16.709  37.791  22.843  1.00  0.00    -0.359 OA
HETATM    9  H   LIG     1      15.738  37.844  22.557  1.00  0.00     0.217 HD
ENDBRANCH   1   8
TORSDOF 1
ENDMDL
MODEL 6
REMARK VINA RESULT:      -5.3      4.594      5.588
REMARK  1 active torsions:
REMARK  status: ('A' for Active; 'I' for Inactive)
REMARK    1  A    between atoms: O_1  and  C_2 
ROOT
HETATM    1  C   LIG     1      17.948  36.767  20.458  1.00  0.00     0.087 A 
HETATM    2  C   LIG     1      18.966  36.990  19.519  1.00  0.00     0.038 A 
HETATM    3  C   LIG     1      19.694  38.184  19.541  1.00  0.00     0.003 A 
HETATM    4  C   LIG     1      19.408  39.160  20.501  1.00  0.00     0.002 A 
HETATM    5  C   LIG     1      18.395  38.943  21.438  1.00  0.00     0.026 A 
HETATM    6  C   LIG     1      17.663  37.749  21.420  1.00  0.00     0.067 A 
HETATM    7 CL   LIG     1      16.392  37.495  22.607  1.00  0.00    -0.081 Cl
ENDROOT
BRANCH   1   8
HETATM    8  O   LIG     1      17.220  35.579  20.439  1.00  0.00    -0.359 OA
HETATM    9  H   LIG     1      16.699  35.289  19.618  1.00  0.00     0.217 HD
ENDBRANCH   1   8
TORSDOF 1
ENDMDL
MODEL 7
REMARK VINA RESULT:      -5.3      4.302      5.125
REMARK  1 active torsions:
REMARK  status: ('A' for Active; 'I' for Inactive)
REMARK    1  A    between atoms: O_1  and  C_2 
ROOT
HETATM    1  C   LIG     1      17.709  38.045  21.580  1.00  0.00     0.087 A 
HETATM    2  C   LIG     1      18.474  39.187  21.303  1.00  0.00     0.038 A 
HETATM    3  C   LIG     1      19.405  39.174  20.260  1.00  0.00     0.003 A 
HETATM    4  C   LIG     1      19.575  38.020  19.489  1.00  0.00     0.002 A 
HETATM    5  C   LIG     1      18.815  36.879  19.761  1.00  0.00     0.026 A 
HETATM    6  C   LIG     1      17.882  36.888  20.804  1.00  0.00     0.067 A 
HETATM    7 CL   LIG     1      16.937  35.443  21.131  1.00  0.00    -0.081 Cl
ENDROOT
BRANCH   1   8
HETATM    8  O   LIG     1      16.780  38.054  22.619  1.00  0.00    -0.359 OA
HETATM    9  H   LIG     1      17.071  38.049  23.590  1.00  0.00     0.217 HD
ENDBRANCH   1   8
TORSDOF 1
ENDMDL
MODEL 8
REMARK VINA RESULT:      -5.3      4.006      4.445
REMARK  1 active torsions:
REMARK  status: ('A' for Active; 'I' for Inactive)
REMARK    1  A    between atoms: O_1  and  C_2 
ROOT
HETATM    1  C   LIG     1      18.192  38.651  21.331  1.00  0.00     0.087 A 
HETATM    2  C   LIG     1      17.265  38.943  22.343  1.00  0.00     0.038 A 
HETATM    3  C   LIG     1      16.353  37.969  22.762  1.00  0.00     0.003 A 
HETATM    4  C   LIG     1      16.362  36.701  22.174  1.00  0.00     0.002 A 
HETATM    5  C   LIG     1      17.284  36.406  21.165  1.00  0.00     0.026 A 
HETATM    6  C   LIG     1      18.199  37.377  20.742  1.00  0.00     0.067 A 
HETATM    7 CL   LIG     1      19.350  36.987  19.472  1.00  0.00    -0.081 Cl
ENDROOT
BRANCH   1   8
HETATM    8  O   LIG     1      19.103  39.618  20.910  1.00  0.00    -0.359 OA
HETATM    9  H   LIG     1      19.079  40.564  21.276  1.00  0.00     0.217 HD
ENDBRANCH   1   8
TORSDOF 1
ENDMDL
MODEL 9
REMARK VINA RESULT:      -5.1      2.382      3.546
REMARK  1 active torsions:
REMARK  status: ('A' for Active; 'I' for Inactive)
REMARK    1  A    between atoms: O_1  and  C_2 
ROOT
HETATM    1  C   LIG     1      17.164  35.638  24.108  1.00  0.00     0.087 A 
HETATM    2  C   LIG     1      17.024  35.090  22.825  1.00  0.00     0.038 A 
HETATM    3  C   LIG     1      16.969  35.927  21.706  1.00  0.00     0.003 A 
HETATM    4  C   LIG     1      17.055  37.314  21.864  1.00  0.00     0.002 A 
HETATM    5  C   LIG     1      17.195  37.864  23.141  1.00  0.00     0.026 A 
HETATM    6  C   LIG     1      17.250  37.030  24.264  1.00  0.00     0.067 A 
HETATM    7 CL   LIG     1      17.425  37.741  25.862  1.00  0.00    -0.081 Cl
ENDROOT
BRANCH   1   8
HETATM    8  O   LIG     1      17.219  34.807  25.226  1.00  0.00    -0.359 OA
HETATM    9  H   LIG     1      17.044  33.811  25.155  1.00  0.00     0.217 HD
ENDBRANCH   1   8
TORSDOF 1
ENDMDL
MODEL 10
REMARK VINA RESULT:      -5.0      2.597      3.689
REMARK  1 active torsions:
REMARK  status: ('A' for Active; 'I' for Inactive)
REMARK    1  A    between atoms: O_1  and  C_2 
ROOT
HETATM    1  C   LIG     1      16.994  36.183  23.355  1.00  0.00     0.087 A 
HETATM    2  C   LIG     1      16.929  37.364  22.602  1.00  0.00     0.038 A 
HETATM    3  C   LIG     1      17.186  38.599  23.207  1.00  0.00     0.003 A 
HETATM    4  C   LIG     1      17.510  38.658  24.566  1.00  0.00     0.002 A 
HETATM    5  C   LIG     1      17.576  37.484  25.320  1.00  0.00     0.026 A 
HETATM    6  C   LIG     1      17.319  36.246  24.719  1.00  0.00     0.067 A 
HETATM    7 CL   LIG     1      17.407  34.780  25.685  1.00  0.00    -0.081 Cl
ENDROOT
BRANCH   1   8
HETATM    8  O   LIG     1      16.738  34.951  22.756  1.00  0.00    -0.359 OA
HETATM    9  H   LIG     1      15.867  34.457  22.912  1.00  0.00     0.217 HD
ENDBRANCH   1   8
TORSDOF 1
ENDMDL
MODEL 11
REMARK VINA RESULT:      -4.9      2.244      3.044
REMARK  1 active torsions:
REMARK  status: ('A' for Active; 'I' for Inactive)
REMARK    1  A    between atoms: O_1  and  C_2 
ROOT
HETATM    1  C   LIG     1      17.245  35.998  24.438  1.00  0.00     0.087 A 
HETATM    2  C   LIG     1      17.478  37.070  25.312  1.00  0.00     0.038 A 
HETATM    3  C   LIG     1      17.473  38.383  24.829  1.00  0.00     0.003 A 
HETATM    4  C   LIG     1      17.236  38.630  23.474  1.00  0.00     0.002 A 
HETATM    5  C   LIG     1      17.004  37.564  22.600  1.00  0.00     0.026 A 
HETATM    6  C   LIG     1      17.008  36.248  23.078  1.00  0.00     0.067 A 
HETATM    7 CL   LIG     1      16.715  34.922  21.963  1.00  0.00    -0.081 Cl
ENDROOT
BRANCH   1   8
HETATM    8  O   LIG     1      17.249  34.688  24.915  1.00  0.00    -0.359 OA
HETATM    9  H   LIG     1      17.234  33.894  24.285  1.00  0.00     0.217 HD
ENDBRANCH   1   8
TORSDOF 1
ENDMDL
MODEL 12
REMARK VINA RESULT:      -4.9     10.674     11.569
REMARK  1 active torsions:
REMARK  status: ('A' for Active; 'I' for Inactive)
REMARK    1  A    between atoms: O_1  and  C_2 
ROOT
HETATM    1  C   LIG     1      13.483  30.969  16.349  1.00  0.00     0.087 A 
HETATM    2  C   LIG     1      13.928  32.050  17.124  1.00  0.00     0.038 A 
HETATM    3  C   LIG     1      15.080  32.752  16.755  1.00  0.00     0.003 A 
HETATM    4  C   LIG     1      15.791  32.379  15.611  1.00  0.00     0.002 A 
HETATM    5  C   LIG     1      15.351  31.303  14.835  1.00  0.00     0.026 A 
HETATM    6  C   LIG     1      14.199  30.596  15.201  1.00  0.00     0.067 A 
HETATM    7 CL   LIG     1      13.662  29.246  14.212  1.00  0.00    -0.081 Cl
ENDROOT
BRANCH   1   8
HETATM    8  O   LIG     1      12.336  30.266  16.714  1.00  0.00    -0.359 OA
HETATM    9  H   LIG     1      11.455  30.402  16.231  1.00  0.00     0.217 HD
ENDBRANCH   1   8
TORSDOF 1
ENDMDL
MODEL 13
REMARK VINA RESULT:      -4.9     10.228     11.207
REMARK  1 active torsions:
REMARK  status: ('A' for Active; 'I' for Inactive)
REMARK    1  A    between atoms: O_1  and  C_2 
ROOT
HETATM    1  C   LIG     1      13.748  31.641  16.473  1.00  0.00     0.087 A 
HETATM    2  C   LIG     1      13.536  30.488  15.701  1.00  0.00     0.038 A 
HETATM    3  C   LIG     1      14.433  30.150  14.683  1.00  0.00     0.003 A 
HETATM    4  C   LIG     1      15.544  30.959  14.431  1.00  0.00     0.002 A 
HETATM    5  C   LIG     1      15.760  32.108  15.198  1.00  0.00     0.026 A 
HETATM    6  C   LIG     1      14.864  32.451  16.217  1.00  0.00     0.067 A 
HETATM    7 CL   LIG     1      15.152  33.901  17.170  1.00  0.00    -0.081 Cl
ENDROOT
BRANCH   1   8
HETATM    8  O   LIG     1      12.856  31.982  17.488  1.00  0.00    -0.359 OA
HETATM    9  H   LIG     1      11.977  31.491  17.608  1.00  0.00     0.217 HD
ENDBRANCH   1   8
TORSDOF 1
ENDMDL
MODEL 14
REMARK VINA RESULT:      -4.8      9.972     10.900
REMARK  1 active torsions:
REMARK  status: ('A' for Active; 'I' for Inactive)
REMARK    1  A    between atoms: O_1  and  C_2 
ROOT
HETATM    1  C   LIG     1      14.987  32.561  16.573  1.00  0.00     0.087 A 
HETATM    2  C   LIG     1      13.799  31.913  16.943  1.00  0.00     0.038 A 
HETATM    3  C   LIG     1      13.322  30.836  16.189  1.00  0.00     0.003 A 
HETATM    4  C   LIG     1      14.029  30.401  15.065  1.00  0.00     0.002 A 
HETATM    5  C   LIG     1      15.214  31.042  14.693  1.00  0.00     0.026 A 
HETATM    6  C   LIG     1      15.695  32.121  15.444  1.00  0.00     0.067 A 
HETATM    7 CL   LIG     1      17.186  32.916  14.960  1.00  0.00    -0.081 Cl
ENDROOT
BRANCH   1   8
HETATM    8  O   LIG     1      15.466  33.635  17.322  1.00  0.00    -0.359 OA
HETATM    9  H   LIG     1      15.540  34.565  16.926  1.00  0.00     0.217 HD
ENDBRANCH   1   8
TORSDOF 1
ENDMDL
MODEL 15
REMARK VINA RESULT:      -4.8     10.723     11.713
REMARK  1 active torsions:
REMARK  status: ('A' for Active; 'I' for Inactive)
REMARK    1  A    between atoms: O_1  and  C_2 
ROOT
HETATM    1  C   LIG     1      15.232  31.056  14.602  1.00  0.00     0.087 A 
HETATM    2  C   LIG     1      14.065  30.375  14.980  1.00  0.00     0.038 A 
HETATM    3  C   LIG     1      13.367  30.762  16.128  1.00  0.00     0.003 A 
HETATM    4  C   LIG     1      13.830  31.830  16.903  1.00  0.00     0.002 A 
HETATM    5  C   LIG     1      14.992  32.512  16.530  1.00  0.00     0.026 A 
HETATM    6  C   LIG     1      15.695  32.128  15.381  1.00  0.00     0.067 A 
HETATM    7 CL   LIG     1      17.154  32.997  14.929  1.00  0.00    -0.081 Cl
ENDROOT
BRANCH   1   8
HETATM    8  O   LIG     1      15.931  30.674  13.458  1.00  0.00    -0.359 OA
HETATM    9  H   LIG     1      16.903  30.927  13.322  1.00  0.00     0.217 HD
ENDBRANCH   1   8
TORSDOF 1
ENDMDL
MODEL 16
REMARK VINA RESULT:      -4.7     10.839     11.738
REMARK  1 active torsions:
REMARK  status: ('A' for Active; 'I' for Inactive)
REMARK    1  A    between atoms: O_1  and  C_2 
ROOT
HETATM    1  C   LIG     1      15.321  31.330  14.836  1.00  0.00     0.087 A 
HETATM    2  C   LIG     1      15.713  32.407  15.645  1.00  0.00     0.038 A 
HETATM    3  C   LIG     1      14.982  32.727  16.793  1.00  0.00     0.003 A 
HETATM    4  C   LIG     1      13.857  31.974  17.139  1.00  0.00     0.002 A 
HETATM    5  C   LIG     1      13.462  30.899  16.336  1.00  0.00     0.026 A 
HETATM    6  C   LIG     1      14.190  30.576  15.186  1.00  0.00     0.067 A 
HETATM    7 CL   LIG     1      13.677  29.222  14.189  1.00  0.00    -0.081 Cl
ENDROOT
BRANCH   1   8
HETATM    8  O   LIG     1      16.047  31.009  13.691  1.00  0.00    -0.359 OA
HETATM    9  H   LIG     1      16.045  30.070  13.309  1.00  0.00     0.217 HD
ENDBRANCH   1   8
TORSDOF 1
ENDMDL
MODEL 17
REMARK VINA RESULT:      -4.6     11.079     12.052
REMARK  1 active torsions:
REMARK  status: ('A' for Active; 'I' for Inactive)
REMARK    1  A    between atoms: O_1  and  C_2 
ROOT
HETATM    1  C   LIG     1      15.698  31.442  14.533  1.00  0.00     0.087 A 
HETATM    2  C   LIG     1      15.255  30.307  13.838  1.00  0.00     0.038 A 
HETATM    3  C   LIG     1      14.097  29.639  14.249  1.00  0.00     0.003 A 
HETATM    4  C   LIG     1      13.376  30.102  15.353  1.00  0.00     0.002 A 
HETATM    5  C   LIG     1      13.813  31.233  16.049  1.00  0.00     0.026 A 
HETATM    6  C   LIG     1      14.972  31.904  15.642  1.00  0.00     0.067 A 
HETATM    7 CL   LIG     1      15.506  33.324  16.530  1.00  0.00    -0.081 Cl
ENDROOT
BRANCH   1   8
HETATM    8  O   LIG     1      16.852  32.110  14.128  1.00  0.00    -0.359 OA
HETATM    9  H   LIG     1      16.972  32.429  13.173  1.00  0.00     0.217 HD
ENDBRANCH   1   8
TORSDOF 1
ENDMDL
MODEL 18
REMARK VINA RESULT:      -4.4     10.319     11.283
REMARK  1 active torsions:
REMARK  status: ('A' for Active; 'I' for Inactive)
REMARK    1  A    between atoms: O_1  and  C_2 
ROOT
HETATM    1  C   LIG     1      14.163  31.754  16.517  1.00  0.00     0.087 A 
HETATM    2  C   LIG     1      15.170  32.704  16.749  1.00  0.00     0.038 A 
HETATM    3  C   LIG     1      16.219  32.852  15.837  1.00  0.00     0.003 A 
HETATM    4  C   LIG     1      16.268  32.054  14.690  1.00  0.00     0.002 A 
HETATM    5  C   LIG     1      15.267  31.107  14.455  1.00  0.00     0.026 A 
HETATM    6  C   LIG     1      14.215  30.954  15.365  1.00  0.00     0.067 A 
HETATM    7 CL   LIG     1      12.967  29.757  15.052  1.00  0.00    -0.081 Cl
ENDROOT
BRANCH   1   8
HETATM    8  O   LIG     1      13.116  31.603  17.424  1.00  0.00    -0.359 OA
HETATM    9  H   LIG     1      12.744  32.392  17.941  1.00  0.00     0.217 HD
ENDBRANCH   1   8
TORSDOF 1
ENDMDL
MODEL 19
REMARK VINA RESULT:      -4.3     11.303     12.332
REMARK  1 active torsions:
REMARK  status: ('A' for Active; 'I' for Inactive)
REMARK    1  A    between atoms: O_1  and  C_2 
ROOT
HETATM    1  C   LIG     1      14.620  30.533  14.333  1.00  0.00     0.087 A 
HETATM    2  C   LIG     1      15.664  31.080  13.572  1.00  0.00     0.038 A 
HETATM    3  C   LIG     1      16.392  32.170  14.060  1.00  0.00     0.003 A 
HETATM    4  C   LIG     1      16.082  32.717  15.309  1.00  0.00     0.002 A 
HETATM    5  C   LIG     1      15.043  32.175  16.070  1.00  0.00     0.026 A 
HETATM    6  C   LIG     1      14.311  31.085  15.586  1.00  0.00     0.067 A 
HETATM    7 CL   LIG     1      13.007  30.418  16.558  1.00  0.00    -0.081 Cl
ENDROOT
BRANCH   1   8
HETATM    8  O   LIG     1      13.891  29.448  13.850  1.00  0.00    -0.359 OA
HETATM    9  H   LIG     1      13.615  29.385  12.877  1.00  0.00     0.217 HD
ENDBRANCH   1   8
TORSDOF 1
ENDMDL
