MODEL 1
REMARK VINA RESULT:      -6.1      0.000      0.000
REMARK  1 active torsions:
REMARK  status: ('A' for Active; 'I' for Inactive)
REMARK    1  A    between atoms: C_7  and  N_8 
ROOT
HETATM    1 CL   LIG     1      16.464  35.963  22.573  1.00  0.00    -0.082 Cl
HETATM    2  C   LIG     1      17.138  36.075  24.194  1.00  0.00     0.060 A 
HETATM    3  C   LIG     1      17.469  34.890  24.862  1.00  0.00     0.026 A 
HETATM    4  C   LIG     1      18.007  34.931  26.150  1.00  0.00     0.002 A 
HETATM    5  C   LIG     1      18.216  36.160  26.781  1.00  0.00     0.002 A 
HETATM    6  C   LIG     1      17.888  37.348  26.123  1.00  0.00     0.031 A 
HETATM    7  C   LIG     1      17.347  37.319  24.828  1.00  0.00     0.047 A 
ENDROOT
BRANCH   7   8
HETATM    8  N   LIG     1      17.020  38.553  24.176  1.00  0.00    -0.398 N 
HETATM    9  H   LIG     1      17.775  39.181  23.819  1.00  0.00     0.156 HD
HETATM   10  H   LIG     1      16.032  38.859  24.038  1.00  0.00     0.156 HD
ENDBRANCH   7   8
TORSDOF 1
ENDMDL
MODEL 2
REMARK VINA RESULT:      -5.7      1.998      2.871
REMARK  1 active torsions:
REMARK  status: ('A' for Active; 'I' for Inactive)
REMARK    1  A    between atoms: C_7  and  N_8 
ROOT
HETATM    1 CL   LIG     1      18.014  35.658  26.686  1.00  0.00    -0.082 Cl
HETATM    2  C   LIG     1      17.453  36.068  25.070  1.00  0.00     0.060 A 
HETATM    3  C   LIG     1      17.290  35.035  24.139  1.00  0.00     0.026 A 
HETATM    4  C   LIG     1      16.847  35.314  22.845  1.00  0.00     0.002 A 
HETATM    5  C   LIG     1      16.565  36.630  22.472  1.00  0.00     0.002 A 
HETATM    6  C   LIG     1      16.723  37.667  23.393  1.00  0.00     0.031 A 
HETATM    7  C   LIG     1      17.168  37.399  24.697  1.00  0.00     0.047 A 
ENDROOT
BRANCH   7   8
HETATM    8  N   LIG     1      17.323  38.482  25.623  1.00  0.00    -0.398 N 
HETATM    9  H   LIG     1      17.635  38.301  26.604  1.00  0.00     0.156 HD
HETATM   10  H   LIG     1      17.132  39.472  25.352  1.00  0.00     0.156 HD
ENDBRANCH   7   8
TORSDOF 1
ENDMDL
MODEL 3
REMARK VINA RESULT:      -5.6      1.574      2.309
REMARK  1 active torsions:
REMARK  status: ('A' for Active; 'I' for Inactive)
REMARK    1  A    between atoms: C_7  and  N_8 
ROOT
HETATM    1 CL   LIG     1      17.148  38.469  23.210  1.00  0.00    -0.082 Cl
HETATM    2  C   LIG     1      17.441  37.173  24.362  1.00  0.00     0.060 A 
HETATM    3  C   LIG     1      17.939  37.507  25.628  1.00  0.00     0.026 A 
HETATM    4  C   LIG     1      18.185  36.511  26.575  1.00  0.00     0.002 A 
HETATM    5  C   LIG     1      17.938  35.172  26.262  1.00  0.00     0.002 A 
HETATM    6  C   LIG     1      17.441  34.829  25.002  1.00  0.00     0.031 A 
HETATM    7  C   LIG     1      17.188  35.822  24.042  1.00  0.00     0.047 A 
ENDROOT
BRANCH   7   8
HETATM    8  N   LIG     1      16.679  35.443  22.757  1.00  0.00    -0.398 N 
HETATM    9  H   LIG     1      15.649  35.384  22.591  1.00  0.00     0.156 HD
HETATM   10  H   LIG     1      17.311  35.216  21.958  1.00  0.00     0.156 HD
ENDBRANCH   7   8
TORSDOF 1
ENDMDL
MODEL 4
REMARK VINA RESULT:      -5.6      1.569      2.166
REMARK  1 active torsions:
REMARK  status: ('A' for Active; 'I' for Inactive)
REMARK    1  A    between atoms: C_7  and  N_8 
ROOT
HETATM    1 CL   LIG     1      16.926  38.968  22.602  1.00  0.00    -0.082 Cl
HETATM    2  C   LIG     1      17.078  37.442  23.463  1.00  0.00     0.060 A 
HETATM    3  C   LIG     1      16.983  36.251  22.732  1.00  0.00     0.026 A 
HETATM    4  C   LIG     1      17.098  35.016  23.375  1.00  0.00     0.002 A 
HETATM    5  C   LIG     1      17.307  34.964  24.755  1.00  0.00     0.002 A 
HETATM    6  C   LIG     1      17.404  36.146  25.493  1.00  0.00     0.031 A 
HETATM    7  C   LIG     1      17.290  37.393  24.858  1.00  0.00     0.047 A 
ENDROOT
BRANCH   7   8
HETATM    8  N   LIG     1      17.392  38.590  25.639  1.00  0.00    -0.398 N 
HETATM    9  H   LIG     1      18.324  38.931  25.969  1.00  0.00     0.156 HD
HETATM   10  H   LIG     1      16.553  39.153  25.899  1.00  0.00     0.156 HD
ENDBRANCH   7   8
TORSDOF 1
ENDMDL
MODEL 5
REMARK VINA RESULT:      -5.3      4.322      5.456
REMARK  1 active torsions:
REMARK  status: ('A' for Active; 'I' for Inactive)
REMARK    1  A    between atoms: C_7  and  N_8 
ROOT
HETATM    1 CL   LIG     1      16.485  37.597  22.773  1.00  0.00    -0.082 Cl
HETATM    2  C   LIG     1      17.692  37.780  21.506  1.00  0.00     0.060 A 
HETATM    3  C   LIG     1      18.472  38.943  21.491  1.00  0.00     0.026 A 
HETATM    4  C   LIG     1      19.442  39.130  20.504  1.00  0.00     0.002 A 
HETATM    5  C   LIG     1      19.638  38.155  19.524  1.00  0.00     0.002 A 
HETATM    6  C   LIG     1      18.865  36.991  19.530  1.00  0.00     0.031 A 
HETATM    7  C   LIG     1      17.887  36.791  20.517  1.00  0.00     0.047 A 
ENDROOT
BRANCH   7   8
HETATM    8  N   LIG     1      17.108  35.589  20.501  1.00  0.00    -0.398 N 
HETATM    9  H   LIG     1      17.552  34.666  20.710  1.00  0.00     0.156 HD
HETATM   10  H   LIG     1      16.087  35.595  20.283  1.00  0.00     0.156 HD
ENDBRANCH   7   8
TORSDOF 1
ENDMDL
MODEL 6
REMARK VINA RESULT:      -5.3      3.813      4.204
REMARK  1 active torsions:
REMARK  status: ('A' for Active; 'I' for Inactive)
REMARK    1  A    between atoms: C_7  and  N_8 
ROOT
HETATM    1 CL   LIG     1      19.361  36.935  19.469  1.00  0.00    -0.082 Cl
HETATM    2  C   LIG     1      18.187  37.307  20.724  1.00  0.00     0.060 A 
HETATM    3  C   LIG     1      17.290  36.304  21.116  1.00  0.00     0.026 A 
HETATM    4  C   LIG     1      16.341  36.555  22.110  1.00  0.00     0.002 A 
HETATM    5  C   LIG     1      16.281  37.811  22.717  1.00  0.00     0.002 A 
HETATM    6  C   LIG     1      17.171  38.817  22.333  1.00  0.00     0.031 A 
HETATM    7  C   LIG     1      18.129  38.577  21.336  1.00  0.00     0.047 A 
ENDROOT
BRANCH   7   8
HETATM    8  N   LIG     1      19.030  39.627  20.961  1.00  0.00    -0.398 N 
HETATM    9  H   LIG     1      18.732  40.627  21.017  1.00  0.00     0.156 HD
HETATM   10  H   LIG     1      19.998  39.430  20.625  1.00  0.00     0.156 HD
ENDBRANCH   7   8
TORSDOF 1
ENDMDL
MODEL 7
REMARK VINA RESULT:      -5.3      3.920      4.793
REMARK  1 active torsions:
REMARK  status: ('A' for Active; 'I' for Inactive)
REMARK    1  A    between atoms: C_7  and  N_8 
ROOT
HETATM    1 CL   LIG     1      16.358  36.093  21.972  1.00  0.00    -0.082 Cl
HETATM    2  C   LIG     1      17.525  37.206  21.271  1.00  0.00     0.060 A 
HETATM    3  C   LIG     1      18.327  36.753  20.215  1.00  0.00     0.026 A 
HETATM    4  C   LIG     1      19.267  37.602  19.628  1.00  0.00     0.002 A 
HETATM    5  C   LIG     1      19.413  38.911  20.093  1.00  0.00     0.002 A 
HETATM    6  C   LIG     1      18.617  39.373  21.144  1.00  0.00     0.031 A 
HETATM    7  C   LIG     1      17.669  38.528  21.743  1.00  0.00     0.047 A 
ENDROOT
BRANCH   7   8
HETATM    8  N   LIG     1      16.866  39.026  22.821  1.00  0.00    -0.398 N 
HETATM    9  H   LIG     1      16.783  40.054  22.989  1.00  0.00     0.156 HD
HETATM   10  H   LIG     1      16.346  38.389  23.462  1.00  0.00     0.156 HD
ENDBRANCH   7   8
TORSDOF 1
ENDMDL
MODEL 8
REMARK VINA RESULT:      -5.2      4.385      5.217
REMARK  1 active torsions:
REMARK  status: ('A' for Active; 'I' for Inactive)
REMARK    1  A    between atoms: C_7  and  N_8 
ROOT
HETATM    1 CL   LIG     1      20.228  39.083  19.413  1.00  0.00    -0.082 Cl
HETATM    2  C   LIG     1      18.991  38.504  20.521  1.00  0.00     0.060 A 
HETATM    3  C   LIG     1      18.667  39.295  21.631  1.00  0.00     0.026 A 
HETATM    4  C   LIG     1      17.690  38.875  22.536  1.00  0.00     0.002 A 
HETATM    5  C   LIG     1      17.031  37.659  22.339  1.00  0.00     0.002 A 
HETATM    6  C   LIG     1      17.347  36.864  21.235  1.00  0.00     0.031 A 
HETATM    7  C   LIG     1      18.327  37.275  20.317  1.00  0.00     0.047 A 
ENDROOT
BRANCH   7   8
HETATM    8  N   LIG     1      18.631  36.440  19.193  1.00  0.00    -0.398 N 
HETATM    9  H   LIG     1      18.293  35.452  19.160  1.00  0.00     0.156 HD
HETATM   10  H   LIG     1      19.192  36.787  18.384  1.00  0.00     0.156 HD
ENDBRANCH   7   8
TORSDOF 1
ENDMDL
MODEL 9
REMARK VINA RESULT:      -5.2      3.930      4.712
REMARK  1 active torsions:
REMARK  status: ('A' for Active; 'I' for Inactive)
REMARK    1  A    between atoms: C_7  and  N_8 
ROOT
HETATM    1 CL   LIG     1      16.718  35.236  21.044  1.00  0.00    -0.082 Cl
HETATM    2  C   LIG     1      17.396  36.845  21.257  1.00  0.00     0.060 A 
HETATM    3  C   LIG     1      16.922  37.633  22.314  1.00  0.00     0.026 A 
HETATM    4  C   LIG     1      17.431  38.917  22.521  1.00  0.00     0.002 A 
HETATM    5  C   LIG     1      18.418  39.422  21.672  1.00  0.00     0.002 A 
HETATM    6  C   LIG     1      18.897  38.644  20.616  1.00  0.00     0.031 A 
HETATM    7  C   LIG     1      18.393  37.352  20.397  1.00  0.00     0.047 A 
ENDROOT
BRANCH   7   8
HETATM    8  N   LIG     1      18.902  36.575  19.306  1.00  0.00    -0.398 N 
HETATM    9  H   LIG     1      19.932  36.449  19.179  1.00  0.00     0.156 HD
HETATM   10  H   LIG     1      18.271  36.116  18.613  1.00  0.00     0.156 HD
ENDBRANCH   7   8
TORSDOF 1
ENDMDL
MODEL 10
REMARK VINA RESULT:      -5.1      2.397      3.629
REMARK  1 active torsions:
REMARK  status: ('A' for Active; 'I' for Inactive)
REMARK    1  A    between atoms: C_7  and  N_8 
ROOT
HETATM    1 CL   LIG     1      17.302  38.340  25.730  1.00  0.00    -0.082 Cl
HETATM    2  C   LIG     1      17.169  37.242  24.362  1.00  0.00     0.060 A 
HETATM    3  C   LIG     1      17.071  37.787  23.076  1.00  0.00     0.026 A 
HETATM    4  C   LIG     1      16.964  36.952  21.962  1.00  0.00     0.002 A 
HETATM    5  C   LIG     1      16.952  35.565  22.126  1.00  0.00     0.002 A 
HETATM    6  C   LIG     1      17.048  35.012  23.405  1.00  0.00     0.031 A 
HETATM    7  C   LIG     1      17.157  35.840  24.533  1.00  0.00     0.047 A 
ENDROOT
BRANCH   7   8
HETATM    8  N   LIG     1      17.255  35.247  25.834  1.00  0.00    -0.398 N 
HETATM    9  H   LIG     1      16.602  34.482  26.118  1.00  0.00     0.156 HD
HETATM   10  H   LIG     1      17.970  35.554  26.529  1.00  0.00     0.156 HD
ENDBRANCH   7   8
TORSDOF 1
ENDMDL
MODEL 11
REMARK VINA RESULT:      -4.9      3.480      4.130
REMARK  1 active torsions:
REMARK  status: ('A' for Active; 'I' for Inactive)
REMARK    1  A    between atoms: C_7  and  N_8 
ROOT
HETATM    1 CL   LIG     1      18.789  39.600  20.810  1.00  0.00    -0.082 Cl
HETATM    2  C   LIG     1      17.925  38.140  21.275  1.00  0.00     0.060 A 
HETATM    3  C   LIG     1      18.156  36.967  20.545  1.00  0.00     0.026 A 
HETATM    4  C   LIG     1      17.493  35.785  20.880  1.00  0.00     0.002 A 
HETATM    5  C   LIG     1      16.592  35.767  21.947  1.00  0.00     0.002 A 
HETATM    6  C   LIG     1      16.355  36.932  22.681  1.00  0.00     0.031 A 
HETATM    7  C   LIG     1      17.015  38.126  22.355  1.00  0.00     0.047 A 
ENDROOT
BRANCH   7   8
HETATM    8  N   LIG     1      16.754  39.307  23.124  1.00  0.00    -0.398 N 
HETATM    9  H   LIG     1      17.114  39.394  24.101  1.00  0.00     0.156 HD
HETATM   10  H   LIG     1      16.203  40.106  22.739  1.00  0.00     0.156 HD
ENDBRANCH   7   8
TORSDOF 1
ENDMDL
MODEL 12
REMARK VINA RESULT:      -4.9      4.210      4.897
REMARK  1 active torsions:
REMARK  status: ('A' for Active; 'I' for Inactive)
REMARK    1  A    between atoms: C_7  and  N_8 
ROOT
HETATM    1 CL   LIG     1      19.647  39.159  20.746  1.00  0.00    -0.082 Cl
HETATM    2  C   LIG     1      18.322  38.071  21.139  1.00  0.00     0.060 A 
HETATM    3  C   LIG     1      17.452  38.427  22.178  1.00  0.00     0.026 A 
HETATM    4  C   LIG     1      16.386  37.594  22.523  1.00  0.00     0.002 A 
HETATM    5  C   LIG     1      16.183  36.397  21.834  1.00  0.00     0.002 A 
HETATM    6  C   LIG     1      17.045  36.032  20.796  1.00  0.00     0.031 A 
HETATM    7  C   LIG     1      18.120  36.862  20.439  1.00  0.00     0.047 A 
ENDROOT
BRANCH   7   8
HETATM    8  N   LIG     1      18.989  36.464  19.372  1.00  0.00    -0.398 N 
HETATM    9  H   LIG     1      19.980  36.796  19.342  1.00  0.00     0.156 HD
HETATM   10  H   LIG     1      18.666  35.839  18.601  1.00  0.00     0.156 HD
ENDBRANCH   7   8
TORSDOF 1
ENDMDL
MODEL 13
REMARK VINA RESULT:      -4.9     10.225     11.118
REMARK  1 active torsions:
REMARK  status: ('A' for Active; 'I' for Inactive)
REMARK    1  A    between atoms: C_7  and  N_8 
ROOT
HETATM    1 CL   LIG     1      13.941  29.334  14.191  1.00  0.00    -0.082 Cl
HETATM    2  C   LIG     1      14.360  30.713  15.199  1.00  0.00     0.060 A 
HETATM    3  C   LIG     1      15.497  31.461  14.867  1.00  0.00     0.026 A 
HETATM    4  C   LIG     1      15.866  32.564  15.639  1.00  0.00     0.002 A 
HETATM    5  C   LIG     1      15.103  32.926  16.750  1.00  0.00     0.002 A 
HETATM    6  C   LIG     1      13.967  32.187  17.090  1.00  0.00     0.031 A 
HETATM    7  C   LIG     1      13.585  31.076  16.321  1.00  0.00     0.047 A 
ENDROOT
BRANCH   7   8
HETATM    8  N   LIG     1      12.416  30.335  16.691  1.00  0.00    -0.398 N 
HETATM    9  H   LIG     1      11.730  30.028  15.965  1.00  0.00     0.156 HD
HETATM   10  H   LIG     1      12.214  30.081  17.683  1.00  0.00     0.156 HD
ENDBRANCH   7   8
TORSDOF 1
ENDMDL
MODEL 14
REMARK VINA RESULT:      -4.9      9.632     10.584
REMARK  1 active torsions:
REMARK  status: ('A' for Active; 'I' for Inactive)
REMARK    1  A    between atoms: C_7  and  N_8 
ROOT
HETATM    1 CL   LIG     1      17.167  33.011  14.929  1.00  0.00    -0.082 Cl
HETATM    2  C   LIG     1      15.689  32.224  15.469  1.00  0.00     0.060 A 
HETATM    3  C   LIG     1      15.237  31.099  14.768  1.00  0.00     0.026 A 
HETATM    4  C   LIG     1      14.069  30.443  15.162  1.00  0.00     0.002 A 
HETATM    5  C   LIG     1      13.343  30.909  16.260  1.00  0.00     0.002 A 
HETATM    6  C   LIG     1      13.785  32.031  16.966  1.00  0.00     0.031 A 
HETATM    7  C   LIG     1      14.958  32.698  16.580  1.00  0.00     0.047 A 
ENDROOT
BRANCH   7   8
HETATM    8  N   LIG     1      15.389  33.846  17.321  1.00  0.00    -0.398 N 
HETATM    9  H   LIG     1      15.909  34.619  16.848  1.00  0.00     0.156 HD
HETATM   10  H   LIG     1      15.201  33.946  18.343  1.00  0.00     0.156 HD
ENDBRANCH   7   8
TORSDOF 1
ENDMDL
MODEL 15
REMARK VINA RESULT:      -4.8      2.230      3.055
REMARK  1 active torsions:
REMARK  status: ('A' for Active; 'I' for Inactive)
REMARK    1  A    between atoms: C_7  and  N_8 
ROOT
HETATM    1 CL   LIG     1      17.550  38.959  21.654  1.00  0.00    -0.082 Cl
HETATM    2  C   LIG     1      17.397  37.591  22.749  1.00  0.00     0.060 A 
HETATM    3  C   LIG     1      17.552  37.816  24.123  1.00  0.00     0.026 A 
HETATM    4  C   LIG     1      17.438  36.759  25.029  1.00  0.00     0.002 A 
HETATM    5  C   LIG     1      17.170  35.469  24.566  1.00  0.00     0.002 A 
HETATM    6  C   LIG     1      17.014  35.234  23.198  1.00  0.00     0.031 A 
HETATM    7  C   LIG     1      17.125  36.289  22.278  1.00  0.00     0.047 A 
ENDROOT
BRANCH   7   8
HETATM    8  N   LIG     1      16.961  36.021  20.880  1.00  0.00    -0.398 N 
HETATM    9  H   LIG     1      16.456  35.164  20.560  1.00  0.00     0.156 HD
HETATM   10  H   LIG     1      17.333  36.664  20.147  1.00  0.00     0.156 HD
ENDBRANCH   7   8
TORSDOF 1
ENDMDL
MODEL 16
REMARK VINA RESULT:      -4.7     10.604     11.601
REMARK  1 active torsions:
REMARK  status: ('A' for Active; 'I' for Inactive)
REMARK    1  A    between atoms: C_7  and  N_8 
ROOT
HETATM    1 CL   LIG     1      16.873  32.503  14.769  1.00  0.00    -0.082 Cl
HETATM    2  C   LIG     1      15.359  31.790  15.308  1.00  0.00     0.060 A 
HETATM    3  C   LIG     1      14.772  32.279  16.482  1.00  0.00     0.026 A 
HETATM    4  C   LIG     1      13.570  31.742  16.948  1.00  0.00     0.002 A 
HETATM    5  C   LIG     1      12.945  30.712  16.242  1.00  0.00     0.002 A 
HETATM    6  C   LIG     1      13.522  30.217  15.070  1.00  0.00     0.031 A 
HETATM    7  C   LIG     1      14.730  30.748  14.592  1.00  0.00     0.047 A 
ENDROOT
BRANCH   7   8
HETATM    8  N   LIG     1      15.300  30.223  13.387  1.00  0.00    -0.398 N 
HETATM    9  H   LIG     1      15.428  29.193  13.265  1.00  0.00     0.156 HD
HETATM   10  H   LIG     1      15.601  30.842  12.602  1.00  0.00     0.156 HD
ENDBRANCH   7   8
TORSDOF 1
ENDMDL
MODEL 17
REMARK VINA RESULT:      -4.6      9.999     11.095
REMARK  1 active torsions:
REMARK  status: ('A' for Active; 'I' for Inactive)
REMARK    1  A    between atoms: C_7  and  N_8 
ROOT
HETATM    1 CL   LIG     1      14.957  33.083  17.863  1.00  0.00    -0.082 Cl
HETATM    2  C   LIG     1      14.851  32.048  16.444  1.00  0.00     0.060 A 
HETATM    3  C   LIG     1      13.771  31.161  16.345  1.00  0.00     0.026 A 
HETATM    4  C   LIG     1      13.647  30.322  15.236  1.00  0.00     0.002 A 
HETATM    5  C   LIG     1      14.603  30.362  14.219  1.00  0.00     0.002 A 
HETATM    6  C   LIG     1      15.684  31.243  14.308  1.00  0.00     0.031 A 
HETATM    7  C   LIG     1      15.819  32.092  15.418  1.00  0.00     0.047 A 
ENDROOT
BRANCH   7   8
HETATM    8  N   LIG     1      16.937  32.987  15.485  1.00  0.00    -0.398 N 
HETATM    9  H   LIG     1      17.146  33.508  16.366  1.00  0.00     0.156 HD
HETATM   10  H   LIG     1      17.568  33.143  14.669  1.00  0.00     0.156 HD
ENDBRANCH   7   8
TORSDOF 1
ENDMDL
MODEL 18
REMARK VINA RESULT:      -4.4     11.195     12.258
REMARK  1 active torsions:
REMARK  status: ('A' for Active; 'I' for Inactive)
REMARK    1  A    between atoms: C_7  and  N_8 
ROOT
HETATM    1 CL   LIG     1      12.919  30.500  16.671  1.00  0.00    -0.082 Cl
HETATM    2  C   LIG     1      14.177  30.931  15.520  1.00  0.00     0.060 A 
HETATM    3  C   LIG     1      15.006  32.021  15.815  1.00  0.00     0.026 A 
HETATM    4  C   LIG     1      16.019  32.398  14.931  1.00  0.00     0.002 A 
HETATM    5  C   LIG     1      16.208  31.689  13.743  1.00  0.00     0.002 A 
HETATM    6  C   LIG     1      15.387  30.600  13.439  1.00  0.00     0.031 A 
HETATM    7  C   LIG     1      14.366  30.211  14.320  1.00  0.00     0.047 A 
ENDROOT
BRANCH   7   8
HETATM    8  N   LIG     1      13.538  29.091  13.984  1.00  0.00    -0.398 N 
HETATM    9  H   LIG     1      12.959  28.621  14.716  1.00  0.00     0.156 HD
HETATM   10  H   LIG     1      13.485  28.715  13.012  1.00  0.00     0.156 HD
ENDBRANCH   7   8
TORSDOF 1
ENDMDL
MODEL 19
REMARK VINA RESULT:      -3.9      6.989      8.110
REMARK  1 active torsions:
REMARK  status: ('A' for Active; 'I' for Inactive)
REMARK    1  A    between atoms: C_7  and  N_8 
ROOT
HETATM    1 CL   LIG     1      14.874  30.909  20.243  1.00  0.00    -0.082 Cl
HETATM    2  C   LIG     1      14.931  32.171  19.018  1.00  0.00     0.060 A 
HETATM    3  C   LIG     1      14.516  31.857  17.718  1.00  0.00     0.026 A 
HETATM    4  C   LIG     1      14.543  32.828  16.714  1.00  0.00     0.002 A 
HETATM    5  C   LIG     1      14.989  34.120  17.004  1.00  0.00     0.002 A 
HETATM    6  C   LIG     1      15.405  34.442  18.298  1.00  0.00     0.031 A 
HETATM    7  C   LIG     1      15.382  33.475  19.315  1.00  0.00     0.047 A 
ENDROOT
BRANCH   7   8
HETATM    8  N   LIG     1      15.814  33.833  20.633  1.00  0.00    -0.398 N 
HETATM    9  H   LIG     1      15.128  34.178  21.342  1.00  0.00     0.156 HD
HETATM   10  H   LIG     1      16.814  33.760  20.925  1.00  0.00     0.156 HD
ENDBRANCH   7   8
TORSDOF 1
ENDMDL
MODEL 20
REMARK VINA RESULT:      -3.6     20.338     20.723
REMARK  1 active torsions:
REMARK  status: ('A' for Active; 'I' for Inactive)
REMARK    1  A    between atoms: C_7  and  N_8 
ROOT
HETATM    1 CL   LIG     1      18.241  18.269  15.952  1.00  0.00    -0.082 Cl
HETATM    2  C   LIG     1      16.542  18.398  15.517  1.00  0.00     0.060 A 
HETATM    3  C   LIG     1      15.582  18.247  16.526  1.00  0.00     0.026 A 
HETATM    4  C   LIG     1      14.221  18.343  16.226  1.00  0.00     0.002 A 
HETATM    5  C   LIG     1      13.811  18.589  14.914  1.00  0.00     0.002 A 
HETATM    6  C   LIG     1      14.760  18.742  13.901  1.00  0.00     0.031 A 
HETATM    7  C   LIG     1      16.131  18.648  14.190  1.00  0.00     0.047 A 
ENDROOT
BRANCH   7   8
HETATM    8  N   LIG     1      17.084  18.809  13.132  1.00  0.00    -0.398 N 
HETATM    9  H   LIG     1      16.775  19.108  12.180  1.00  0.00     0.156 HD
HETATM   10  H   LIG     1      18.103  18.636  13.276  1.00  0.00     0.156 HD
ENDBRANCH   7   8
TORSDOF 1
ENDMDL
