REMARK  1 active torsions:
REMARK  status: ('A' for Active; 'I' for Inactive)
REMARK    1  A    between atoms: O_1  and  C_2 
ROOT
HETATM    1  C   LIG     1       1.092  -0.128   0.046  1.00  0.00     0.087 A 
HETATM    2  C   LIG     1       0.221  -1.183   0.356  1.00  0.00     0.038 A 
HETATM    3  C   LIG     1      -1.163  -0.994   0.290  1.00  0.00     0.003 A 
HETATM    4  C   LIG     1      -1.683   0.248  -0.086  1.00  0.00     0.002 A 
HETATM    5  C   LIG     1      -0.819   1.302  -0.396  1.00  0.00     0.026 A 
HETATM    6  C   LIG     1       0.567   1.118  -0.331  1.00  0.00     0.067 A 
HETATM    7 CL   LIG     1       1.637   2.456  -0.724  1.00  0.00    -0.081 Cl
ENDROOT
BRANCH   1   8
HETATM    8  O   LIG     1       2.472  -0.312   0.111  1.00  0.00    -0.359 OA
HETATM    9  H   LIG     1       2.876  -1.202   0.380  1.00  0.00     0.217 HD
ENDBRANCH   1   8
TORSDOF 1
