REMARK  1 active torsions:
REMARK  status: ('A' for Active; 'I' for Inactive)
REMARK    1  A    between atoms: C_7  and  N_8 
ROOT
HETATM    1 CL   LIG     1       0.847   2.781   0.190  1.00  0.00    -0.082 Cl
HETATM    2  C   LIG     1       0.107   1.188   0.095  1.00  0.00     0.060 A 
HETATM    3  C   LIG     1      -1.289   1.096   0.163  1.00  0.00     0.026 A 
HETATM    4  C   LIG     1      -1.919  -0.148   0.091  1.00  0.00     0.002 A 
HETATM    5  C   LIG     1      -1.157  -1.310  -0.048  1.00  0.00     0.002 A 
HETATM    6  C   LIG     1       0.236  -1.229  -0.117  1.00  0.00     0.031 A 
HETATM    7  C   LIG     1       0.881   0.016  -0.046  1.00  0.00     0.047 A 
ENDROOT
BRANCH   7   8
HETATM    8  N   LIG     1       2.311   0.071  -0.119  1.00  0.00    -0.398 N 
HETATM    9  H   LIG     1       2.871  -0.805  -0.224  1.00  0.00     0.156 HD
HETATM   10  H   LIG     1       2.832   0.974  -0.071  1.00  0.00     0.156 HD
ENDBRANCH   7   8
TORSDOF 1
