MODEL 1
REMARK VINA RESULT:      -5.8      0.000      0.000
REMARK  2 active torsions:
REMARK  status: ('A' for Active; 'I' for Inactive)
REMARK    1  A    between atoms: N_1  and  C_2 
REMARK    2  A    between atoms: C_7  and  O_8 
ROOT
HETATM    1  C   LIG     1      16.973  36.866  24.418  1.00  0.00     0.059 A 
HETATM    2  C   LIG     1      17.133  35.470  24.348  1.00  0.00     0.032 A 
HETATM    3  C   LIG     1      17.786  34.776  25.368  1.00  0.00     0.002 A 
HETATM    4  C   LIG     1      18.289  35.465  26.471  1.00  0.00     0.003 A 
HETATM    5  C   LIG     1      18.139  36.850  26.557  1.00  0.00     0.039 A 
HETATM    6  C   LIG     1      17.486  37.563  25.542  1.00  0.00     0.091 A 
ENDROOT
BRANCH   1   7
HETATM    7  N   LIG     1      16.295  37.534  23.346  1.00  0.00    -0.397 N 
HETATM    8  H   LIG     1      16.108  38.558  23.339  1.00  0.00     0.156 HD
HETATM    9  H   LIG     1      15.959  36.992  22.519  1.00  0.00     0.156 HD
ENDBRANCH   1   7
BRANCH   6  10
HETATM   10  O   LIG     1      17.371  38.946  25.693  1.00  0.00    -0.358 OA
HETATM   11  H   LIG     1      16.565  39.483  25.408  1.00  0.00     0.217 HD
ENDBRANCH   6  10
TORSDOF 2
ENDMDL
MODEL 2
REMARK VINA RESULT:      -5.7      1.659      2.312
REMARK  2 active torsions:
REMARK  status: ('A' for Active; 'I' for Inactive)
REMARK    1  A    between atoms: N_1  and  C_2 
REMARK    2  A    between atoms: C_7  and  O_8 
ROOT
HETATM    1  C   LIG     1      17.347  37.361  24.905  1.00  0.00     0.059 A 
HETATM    2  C   LIG     1      17.911  37.313  26.192  1.00  0.00     0.032 A 
HETATM    3  C   LIG     1      18.234  36.090  26.783  1.00  0.00     0.002 A 
HETATM    4  C   LIG     1      17.997  34.899  26.098  1.00  0.00     0.003 A 
HETATM    5  C   LIG     1      17.437  34.928  24.820  1.00  0.00     0.039 A 
HETATM    6  C   LIG     1      17.108  36.147  24.211  1.00  0.00     0.091 A 
ENDROOT
BRANCH   1   7
HETATM    7  N   LIG     1      17.034  38.641  24.340  1.00  0.00    -0.397 N 
HETATM    8  H   LIG     1      16.109  38.869  23.920  1.00  0.00     0.156 HD
HETATM    9  H   LIG     1      17.749  39.402  24.335  1.00  0.00     0.156 HD
ENDBRANCH   1   7
BRANCH   6  10
HETATM   10  O   LIG     1      16.552  36.102  22.931  1.00  0.00    -0.358 OA
HETATM   11  H   LIG     1      15.908  36.789  22.568  1.00  0.00     0.217 HD
ENDBRANCH   6  10
TORSDOF 2
ENDMDL
MODEL 3
REMARK VINA RESULT:      -5.5      1.760      2.559
REMARK  2 active torsions:
REMARK  status: ('A' for Active; 'I' for Inactive)
REMARK    1  A    between atoms: N_1  and  C_2 
REMARK    2  A    between atoms: C_7  and  O_8 
ROOT
HETATM    1  C   LIG     1      17.457  36.253  25.483  1.00  0.00     0.059 A 
HETATM    2  C   LIG     1      17.373  35.081  24.711  1.00  0.00     0.032 A 
HETATM    3  C   LIG     1      17.043  35.143  23.356  1.00  0.00     0.002 A 
HETATM    4  C   LIG     1      16.792  36.375  22.754  1.00  0.00     0.003 A 
HETATM    5  C   LIG     1      16.870  37.549  23.506  1.00  0.00     0.039 A 
HETATM    6  C   LIG     1      17.200  37.505  24.867  1.00  0.00     0.091 A 
ENDROOT
BRANCH   1   7
HETATM    7  N   LIG     1      17.799  36.138  26.871  1.00  0.00    -0.397 N 
HETATM    8  H   LIG     1      18.317  36.873  27.394  1.00  0.00     0.156 HD
HETATM    9  H   LIG     1      17.529  35.285  27.409  1.00  0.00     0.156 HD
ENDBRANCH   1   7
BRANCH   6  10
HETATM   10  O   LIG     1      17.262  38.717  25.558  1.00  0.00    -0.358 OA
HETATM   11  H   LIG     1      16.453  39.239  25.861  1.00  0.00     0.217 HD
ENDBRANCH   6  10
TORSDOF 2
ENDMDL
MODEL 4
REMARK VINA RESULT:      -5.5      1.798      2.641
REMARK  2 active torsions:
REMARK  status: ('A' for Active; 'I' for Inactive)
REMARK    1  A    between atoms: N_1  and  C_2 
REMARK    2  A    between atoms: C_7  and  O_8 
ROOT
HETATM    1  C   LIG     1      17.186  37.435  24.834  1.00  0.00     0.059 A 
HETATM    2  C   LIG     1      16.873  37.526  23.466  1.00  0.00     0.032 A 
HETATM    3  C   LIG     1      16.785  36.377  22.678  1.00  0.00     0.002 A 
HETATM    4  C   LIG     1      17.009  35.123  23.244  1.00  0.00     0.003 A 
HETATM    5  C   LIG     1      17.321  35.014  24.600  1.00  0.00     0.039 A 
HETATM    6  C   LIG     1      17.413  36.157  25.406  1.00  0.00     0.091 A 
ENDROOT
BRANCH   1   7
HETATM    7  N   LIG     1      17.265  38.643  25.602  1.00  0.00    -0.397 N 
HETATM    8  H   LIG     1      18.163  39.118  25.830  1.00  0.00     0.156 HD
HETATM    9  H   LIG     1      16.395  39.092  25.965  1.00  0.00     0.156 HD
ENDBRANCH   1   7
BRANCH   6  10
HETATM   10  O   LIG     1      17.729  35.975  26.754  1.00  0.00    -0.358 OA
HETATM   11  H   LIG     1      18.541  35.474  27.084  1.00  0.00     0.217 HD
ENDBRANCH   6  10
TORSDOF 2
ENDMDL
MODEL 5
REMARK VINA RESULT:      -5.2      4.512      5.176
REMARK  2 active torsions:
REMARK  status: ('A' for Active; 'I' for Inactive)
REMARK    1  A    between atoms: N_1  and  C_2 
REMARK    2  A    between atoms: C_7  and  O_8 
ROOT
HETATM    1  C   LIG     1      19.247  38.419  20.017  1.00  0.00     0.059 A 
HETATM    2  C   LIG     1      18.937  37.123  19.568  1.00  0.00     0.032 A 
HETATM    3  C   LIG     1      17.993  36.344  20.238  1.00  0.00     0.002 A 
HETATM    4  C   LIG     1      17.346  36.848  21.366  1.00  0.00     0.003 A 
HETATM    5  C   LIG     1      17.641  38.131  21.826  1.00  0.00     0.039 A 
HETATM    6  C   LIG     1      18.587  38.928  21.165  1.00  0.00     0.091 A 
ENDROOT
BRANCH   1   7
HETATM    7  N   LIG     1      20.224  39.181  19.295  1.00  0.00    -0.397 N 
HETATM    8  H   LIG     1      20.494  40.153  19.552  1.00  0.00     0.156 HD
HETATM    9  H   LIG     1      20.705  38.767  18.466  1.00  0.00     0.156 HD
ENDBRANCH   1   7
BRANCH   6  10
HETATM   10  O   LIG     1      18.833  40.202  21.679  1.00  0.00    -0.358 OA
HETATM   11  H   LIG     1      18.665  41.060  21.174  1.00  0.00     0.217 HD
ENDBRANCH   6  10
TORSDOF 2
ENDMDL
MODEL 6
REMARK VINA RESULT:      -5.1      4.682      5.516
REMARK  2 active torsions:
REMARK  status: ('A' for Active; 'I' for Inactive)
REMARK    1  A    between atoms: N_1  and  C_2 
REMARK    2  A    between atoms: C_7  and  O_8 
ROOT
HETATM    1  C   LIG     1      19.032  38.643  20.398  1.00  0.00     0.059 A 
HETATM    2  C   LIG     1      18.509  39.401  21.460  1.00  0.00     0.032 A 
HETATM    3  C   LIG     1      17.535  38.866  22.305  1.00  0.00     0.002 A 
HETATM    4  C   LIG     1      17.070  37.567  22.101  1.00  0.00     0.003 A 
HETATM    5  C   LIG     1      17.578  36.801  21.051  1.00  0.00     0.039 A 
HETATM    6  C   LIG     1      18.556  37.322  20.193  1.00  0.00     0.091 A 
ENDROOT
BRANCH   1   7
HETATM    7  N   LIG     1      20.031  39.237  19.557  1.00  0.00    -0.397 N 
HETATM    8  H   LIG     1      19.822  39.980  18.860  1.00  0.00     0.156 HD
HETATM    9  H   LIG     1      21.026  38.927  19.625  1.00  0.00     0.156 HD
ENDBRANCH   1   7
BRANCH   6  10
HETATM   10  O   LIG     1      19.020  36.500  19.164  1.00  0.00    -0.358 OA
HETATM   11  H   LIG     1      19.605  35.690  19.306  1.00  0.00     0.217 HD
ENDBRANCH   6  10
TORSDOF 2
ENDMDL
MODEL 7
REMARK VINA RESULT:      -5.1      3.760      4.554
REMARK  2 active torsions:
REMARK  status: ('A' for Active; 'I' for Inactive)
REMARK    1  A    between atoms: N_1  and  C_2 
REMARK    2  A    between atoms: C_7  and  O_8 
ROOT
HETATM    1  C   LIG     1      17.359  38.180  22.158  1.00  0.00     0.059 A 
HETATM    2  C   LIG     1      16.925  36.872  21.879  1.00  0.00     0.032 A 
HETATM    3  C   LIG     1      17.458  36.160  20.803  1.00  0.00     0.002 A 
HETATM    4  C   LIG     1      18.431  36.743  19.992  1.00  0.00     0.003 A 
HETATM    5  C   LIG     1      18.873  38.040  20.255  1.00  0.00     0.039 A 
HETATM    6  C   LIG     1      18.349  38.770  21.331  1.00  0.00     0.091 A 
ENDROOT
BRANCH   1   7
HETATM    7  N   LIG     1      16.782  38.872  23.274  1.00  0.00    -0.397 N 
HETATM    8  H   LIG     1      17.302  39.570  23.844  1.00  0.00     0.156 HD
HETATM    9  H   LIG     1      15.793  38.684  23.553  1.00  0.00     0.156 HD
ENDBRANCH   1   7
BRANCH   6  10
HETATM   10  O   LIG     1      18.838  40.062  21.537  1.00  0.00    -0.358 OA
HETATM   11  H   LIG     1      18.853  40.782  20.829  1.00  0.00     0.217 HD
ENDBRANCH   6  10
TORSDOF 2
ENDMDL
MODEL 8
REMARK VINA RESULT:      -5.1      4.590      5.603
REMARK  2 active torsions:
REMARK  status: ('A' for Active; 'I' for Inactive)
REMARK    1  A    between atoms: N_1  and  C_2 
REMARK    2  A    between atoms: C_7  and  O_8 
ROOT
HETATM    1  C   LIG     1      17.642  37.730  21.464  1.00  0.00     0.059 A 
HETATM    2  C   LIG     1      18.402  38.913  21.487  1.00  0.00     0.032 A 
HETATM    3  C   LIG     1      19.401  39.135  20.538  1.00  0.00     0.002 A 
HETATM    4  C   LIG     1      19.654  38.180  19.554  1.00  0.00     0.003 A 
HETATM    5  C   LIG     1      18.909  37.001  19.517  1.00  0.00     0.039 A 
HETATM    6  C   LIG     1      17.902  36.761  20.462  1.00  0.00     0.091 A 
ENDROOT
BRANCH   1   7
HETATM    7  N   LIG     1      16.626  37.547  22.461  1.00  0.00    -0.397 N 
HETATM    8  H   LIG     1      16.585  36.719  23.089  1.00  0.00     0.156 HD
HETATM    9  H   LIG     1      15.877  38.264  22.585  1.00  0.00     0.156 HD
ENDBRANCH   1   7
BRANCH   6  10
HETATM   10  O   LIG     1      17.196  35.561  20.365  1.00  0.00    -0.358 OA
HETATM   11  H   LIG     1      16.209  35.466  20.556  1.00  0.00     0.217 HD
ENDBRANCH   6  10
TORSDOF 2
ENDMDL
MODEL 9
REMARK VINA RESULT:      -5.1      4.387      5.208
REMARK  2 active torsions:
REMARK  status: ('A' for Active; 'I' for Inactive)
REMARK    1  A    between atoms: N_1  and  C_2 
REMARK    2  A    between atoms: C_7  and  O_8 
ROOT
HETATM    1  C   LIG     1      17.892  36.801  20.516  1.00  0.00     0.059 A 
HETATM    2  C   LIG     1      18.897  36.970  19.547  1.00  0.00     0.032 A 
HETATM    3  C   LIG     1      19.671  38.131  19.521  1.00  0.00     0.002 A 
HETATM    4  C   LIG     1      19.453  39.138  20.460  1.00  0.00     0.003 A 
HETATM    5  C   LIG     1      18.460  38.987  21.428  1.00  0.00     0.039 A 
HETATM    6  C   LIG     1      17.673  37.828  21.470  1.00  0.00     0.091 A 
ENDROOT
BRANCH   1   7
HETATM    7  N   LIG     1      17.122  35.590  20.503  1.00  0.00    -0.397 N 
HETATM    8  H   LIG     1      16.646  35.207  21.345  1.00  0.00     0.156 HD
HETATM    9  H   LIG     1      17.018  35.044  19.619  1.00  0.00     0.156 HD
ENDBRANCH   1   7
BRANCH   6  10
HETATM   10  O   LIG     1      16.698  37.742  22.466  1.00  0.00    -0.358 OA
HETATM   11  H   LIG     1      15.708  37.660  22.285  1.00  0.00     0.217 HD
ENDBRANCH   6  10
TORSDOF 2
ENDMDL
MODEL 10
REMARK VINA RESULT:      -5.1      4.388      5.052
REMARK  2 active torsions:
REMARK  status: ('A' for Active; 'I' for Inactive)
REMARK    1  A    between atoms: N_1  and  C_2 
REMARK    2  A    between atoms: C_7  and  O_8 
ROOT
HETATM    1  C   LIG     1      18.482  37.415  20.315  1.00  0.00     0.059 A 
HETATM    2  C   LIG     1      17.524  36.860  21.182  1.00  0.00     0.032 A 
HETATM    3  C   LIG     1      17.034  37.594  22.264  1.00  0.00     0.002 A 
HETATM    4  C   LIG     1      17.493  38.890  22.495  1.00  0.00     0.003 A 
HETATM    5  C   LIG     1      18.444  39.456  21.644  1.00  0.00     0.039 A 
HETATM    6  C   LIG     1      18.947  38.734  20.553  1.00  0.00     0.091 A 
ENDROOT
BRANCH   1   7
HETATM    7  N   LIG     1      18.955  36.623  19.217  1.00  0.00    -0.397 N 
HETATM    8  H   LIG     1      19.210  37.024  18.291  1.00  0.00     0.156 HD
HETATM    9  H   LIG     1      19.058  35.589  19.322  1.00  0.00     0.156 HD
ENDBRANCH   1   7
BRANCH   6  10
HETATM   10  O   LIG     1      19.895  39.362  19.742  1.00  0.00    -0.358 OA
HETATM   11  H   LIG     1      20.744  39.786  20.086  1.00  0.00     0.217 HD
ENDBRANCH   6  10
TORSDOF 2
ENDMDL
MODEL 11
REMARK VINA RESULT:      -5.0     11.540     12.442
REMARK  2 active torsions:
REMARK  status: ('A' for Active; 'I' for Inactive)
REMARK    1  A    between atoms: N_1  and  C_2 
REMARK    2  A    between atoms: C_7  and  O_8 
ROOT
HETATM    1  C   LIG     1      13.696  29.899  14.624  1.00  0.00     0.059 A 
HETATM    2  C   LIG     1      14.842  30.263  13.895  1.00  0.00     0.032 A 
HETATM    3  C   LIG     1      15.686  31.275  14.356  1.00  0.00     0.002 A 
HETATM    4  C   LIG     1      15.398  31.937  15.549  1.00  0.00     0.003 A 
HETATM    5  C   LIG     1      14.264  31.588  16.284  1.00  0.00     0.039 A 
HETATM    6  C   LIG     1      13.406  30.574  15.837  1.00  0.00     0.091 A 
ENDROOT
BRANCH   1   7
HETATM    7  N   LIG     1      12.860  28.853  14.110  1.00  0.00    -0.397 N 
HETATM    8  H   LIG     1      11.821  28.907  14.097  1.00  0.00     0.156 HD
HETATM    9  H   LIG     1      13.287  27.981  13.724  1.00  0.00     0.156 HD
ENDBRANCH   1   7
BRANCH   6  10
HETATM   10  O   LIG     1      12.291  30.276  16.623  1.00  0.00    -0.358 OA
HETATM   11  H   LIG     1      11.338  30.464  16.350  1.00  0.00     0.217 HD
ENDBRANCH   6  10
TORSDOF 2
ENDMDL
MODEL 12
REMARK VINA RESULT:      -5.0     10.696     11.719
REMARK  2 active torsions:
REMARK  status: ('A' for Active; 'I' for Inactive)
REMARK    1  A    between atoms: N_1  and  C_2 
REMARK    2  A    between atoms: C_7  and  O_8 
ROOT
HETATM    1  C   LIG     1      14.282  31.775  16.544  1.00  0.00     0.059 A 
HETATM    2  C   LIG     1      15.420  32.178  15.822  1.00  0.00     0.032 A 
HETATM    3  C   LIG     1      15.759  31.553  14.621  1.00  0.00     0.002 A 
HETATM    4  C   LIG     1      14.969  30.517  14.125  1.00  0.00     0.003 A 
HETATM    5  C   LIG     1      13.837  30.104  14.828  1.00  0.00     0.039 A 
HETATM    6  C   LIG     1      13.481  30.720  16.035  1.00  0.00     0.091 A 
ENDROOT
BRANCH   1   7
HETATM    7  N   LIG     1      13.974  32.448  17.772  1.00  0.00    -0.397 N 
HETATM    8  H   LIG     1      13.337  32.054  18.494  1.00  0.00     0.156 HD
HETATM    9  H   LIG     1      14.395  33.381  17.979  1.00  0.00     0.156 HD
ENDBRANCH   1   7
BRANCH   6  10
HETATM   10  O   LIG     1      12.335  30.257  16.686  1.00  0.00    -0.358 OA
HETATM   11  H   LIG     1      11.421  30.211  16.260  1.00  0.00     0.217 HD
ENDBRANCH   6  10
TORSDOF 2
ENDMDL
MODEL 13
REMARK VINA RESULT:      -5.0     10.487     11.444
REMARK  2 active torsions:
REMARK  status: ('A' for Active; 'I' for Inactive)
REMARK    1  A    between atoms: N_1  and  C_2 
REMARK    2  A    between atoms: C_7  and  O_8 
ROOT
HETATM    1  C   LIG     1      15.135  32.112  15.966  1.00  0.00     0.059 A 
HETATM    2  C   LIG     1      15.638  31.585  14.764  1.00  0.00     0.032 A 
HETATM    3  C   LIG     1      14.993  30.524  14.126  1.00  0.00     0.002 A 
HETATM    4  C   LIG     1      13.838  29.974  14.680  1.00  0.00     0.003 A 
HETATM    5  C   LIG     1      13.325  30.485  15.873  1.00  0.00     0.039 A 
HETATM    6  C   LIG     1      13.959  31.550  16.527  1.00  0.00     0.091 A 
ENDROOT
BRANCH   1   7
HETATM    7  N   LIG     1      15.832  33.203  16.583  1.00  0.00    -0.397 N 
HETATM    8  H   LIG     1      15.350  33.990  17.064  1.00  0.00     0.156 HD
HETATM    9  H   LIG     1      16.876  33.236  16.565  1.00  0.00     0.156 HD
ENDBRANCH   1   7
BRANCH   6  10
HETATM   10  O   LIG     1      13.390  32.011  17.716  1.00  0.00    -0.358 OA
HETATM   11  H   LIG     1      12.810  31.451  18.322  1.00  0.00     0.217 HD
ENDBRANCH   6  10
TORSDOF 2
ENDMDL
MODEL 14
REMARK VINA RESULT:      -4.9     10.371     11.306
REMARK  2 active torsions:
REMARK  status: ('A' for Active; 'I' for Inactive)
REMARK    1  A    between atoms: N_1  and  C_2 
REMARK    2  A    between atoms: C_7  and  O_8 
ROOT
HETATM    1  C   LIG     1      14.164  31.609  16.584  1.00  0.00     0.059 A 
HETATM    2  C   LIG     1      13.515  30.553  15.920  1.00  0.00     0.032 A 
HETATM    3  C   LIG     1      13.982  30.094  14.686  1.00  0.00     0.002 A 
HETATM    4  C   LIG     1      15.101  30.683  14.100  1.00  0.00     0.003 A 
HETATM    5  C   LIG     1      15.757  31.733  14.745  1.00  0.00     0.039 A 
HETATM    6  C   LIG     1      15.302  32.206  15.984  1.00  0.00     0.091 A 
ENDROOT
BRANCH   1   7
HETATM    7  N   LIG     1      13.647  32.044  17.849  1.00  0.00    -0.397 N 
HETATM    8  H   LIG     1      12.637  32.221  18.023  1.00  0.00     0.156 HD
HETATM    9  H   LIG     1      14.293  32.200  18.654  1.00  0.00     0.156 HD
ENDBRANCH   1   7
BRANCH   6  10
HETATM   10  O   LIG     1      16.006  33.257  16.574  1.00  0.00    -0.358 OA
HETATM   11  H   LIG     1      15.890  34.229  16.324  1.00  0.00     0.217 HD
ENDBRANCH   6  10
TORSDOF 2
ENDMDL
MODEL 15
REMARK VINA RESULT:      -4.9      3.570      4.260
REMARK  2 active torsions:
REMARK  status: ('A' for Active; 'I' for Inactive)
REMARK    1  A    between atoms: N_1  and  C_2 
REMARK    2  A    between atoms: C_7  and  O_8 
ROOT
HETATM    1  C   LIG     1      18.188  38.632  21.482  1.00  0.00     0.059 A 
HETATM    2  C   LIG     1      18.578  37.742  20.466  1.00  0.00     0.032 A 
HETATM    3  C   LIG     1      17.979  36.486  20.352  1.00  0.00     0.002 A 
HETATM    4  C   LIG     1      16.984  36.103  21.249  1.00  0.00     0.003 A 
HETATM    5  C   LIG     1      16.585  36.974  22.264  1.00  0.00     0.039 A 
HETATM    6  C   LIG     1      17.175  38.238  22.393  1.00  0.00     0.091 A 
ENDROOT
BRANCH   1   7
HETATM    7  N   LIG     1      18.833  39.911  21.559  1.00  0.00    -0.397 N 
HETATM    8  H   LIG     1      18.662  40.591  22.327  1.00  0.00     0.156 HD
HETATM    9  H   LIG     1      19.512  40.202  20.821  1.00  0.00     0.156 HD
ENDBRANCH   1   7
BRANCH   6  10
HETATM   10  O   LIG     1      16.727  39.059  23.430  1.00  0.00    -0.358 OA
HETATM   11  H   LIG     1      16.535  38.736  24.367  1.00  0.00     0.217 HD
ENDBRANCH   6  10
TORSDOF 2
ENDMDL
MODEL 16
REMARK VINA RESULT:      -4.8      4.366      5.220
REMARK  2 active torsions:
REMARK  status: ('A' for Active; 'I' for Inactive)
REMARK    1  A    between atoms: N_1  and  C_2 
REMARK    2  A    between atoms: C_7  and  O_8 
ROOT
HETATM    1  C   LIG     1      17.440  36.780  21.128  1.00  0.00     0.059 A 
HETATM    2  C   LIG     1      16.988  37.615  22.165  1.00  0.00     0.032 A 
HETATM    3  C   LIG     1      17.519  38.895  22.331  1.00  0.00     0.002 A 
HETATM    4  C   LIG     1      18.508  39.359  21.464  1.00  0.00     0.003 A 
HETATM    5  C   LIG     1      18.969  38.543  20.430  1.00  0.00     0.039 A 
HETATM    6  C   LIG     1      18.447  37.255  20.249  1.00  0.00     0.091 A 
ENDROOT
BRANCH   1   7
HETATM    7  N   LIG     1      16.864  35.473  20.999  1.00  0.00    -0.397 N 
HETATM    8  H   LIG     1      16.962  34.888  20.144  1.00  0.00     0.156 HD
HETATM    9  H   LIG     1      16.312  35.062  21.784  1.00  0.00     0.156 HD
ENDBRANCH   1   7
BRANCH   6  10
HETATM   10  O   LIG     1      18.953  36.493  19.193  1.00  0.00    -0.358 OA
HETATM   11  H   LIG     1      18.707  36.633  18.224  1.00  0.00     0.217 HD
ENDBRANCH   6  10
TORSDOF 2
ENDMDL
MODEL 17
REMARK VINA RESULT:      -4.8     11.489     12.396
REMARK  2 active torsions:
REMARK  status: ('A' for Active; 'I' for Inactive)
REMARK    1  A    between atoms: N_1  and  C_2 
REMARK    2  A    between atoms: C_7  and  O_8 
ROOT
HETATM    1  C   LIG     1      13.660  30.065  14.858  1.00  0.00     0.059 A 
HETATM    2  C   LIG     1      13.014  30.601  15.986  1.00  0.00     0.032 A 
HETATM    3  C   LIG     1      13.599  31.638  16.715  1.00  0.00     0.002 A 
HETATM    4  C   LIG     1      14.836  32.153  16.329  1.00  0.00     0.003 A 
HETATM    5  C   LIG     1      15.491  31.632  15.212  1.00  0.00     0.039 A 
HETATM    6  C   LIG     1      14.918  30.591  14.468  1.00  0.00     0.091 A 
ENDROOT
BRANCH   1   7
HETATM    7  N   LIG     1      13.019  29.001  14.141  1.00  0.00    -0.397 N 
HETATM    8  H   LIG     1      13.503  28.423  13.424  1.00  0.00     0.156 HD
HETATM    9  H   LIG     1      12.017  28.773  14.326  1.00  0.00     0.156 HD
ENDBRANCH   1   7
BRANCH   6  10
HETATM   10  O   LIG     1      15.627  30.119  13.362  1.00  0.00    -0.358 OA
HETATM   11  H   LIG     1      15.559  29.178  13.003  1.00  0.00     0.217 HD
ENDBRANCH   6  10
TORSDOF 2
ENDMDL
MODEL 18
REMARK VINA RESULT:      -4.7      4.566      5.462
REMARK  2 active torsions:
REMARK  status: ('A' for Active; 'I' for Inactive)
REMARK    1  A    between atoms: N_1  and  C_2 
REMARK    2  A    between atoms: C_7  and  O_8 
ROOT
HETATM    1  C   LIG     1      18.686  38.902  21.232  1.00  0.00     0.059 A 
HETATM    2  C   LIG     1      19.677  38.994  20.238  1.00  0.00     0.032 A 
HETATM    3  C   LIG     1      19.879  37.948  19.336  1.00  0.00     0.002 A 
HETATM    4  C   LIG     1      19.096  36.797  19.413  1.00  0.00     0.003 A 
HETATM    5  C   LIG     1      18.108  36.689  20.393  1.00  0.00     0.039 A 
HETATM    6  C   LIG     1      17.891  37.729  21.307  1.00  0.00     0.091 A 
ENDROOT
BRANCH   1   7
HETATM    7  N   LIG     1      18.516  40.002  22.136  1.00  0.00    -0.397 N 
HETATM    8  H   LIG     1      17.609  40.230  22.593  1.00  0.00     0.156 HD
HETATM    9  H   LIG     1      19.323  40.623  22.365  1.00  0.00     0.156 HD
ENDBRANCH   1   7
BRANCH   6  10
HETATM   10  O   LIG     1      16.886  37.554  22.260  1.00  0.00    -0.358 OA
HETATM   11  H   LIG     1      15.963  37.202  22.053  1.00  0.00     0.217 HD
ENDBRANCH   6  10
TORSDOF 2
ENDMDL
MODEL 19
REMARK VINA RESULT:      -4.7     10.880     11.858
REMARK  2 active torsions:
REMARK  status: ('A' for Active; 'I' for Inactive)
REMARK    1  A    between atoms: N_1  and  C_2 
REMARK    2  A    between atoms: C_7  and  O_8 
ROOT
HETATM    1  C   LIG     1      15.361  32.188  15.721  1.00  0.00     0.059 A 
HETATM    2  C   LIG     1      14.251  31.715  16.441  1.00  0.00     0.032 A 
HETATM    3  C   LIG     1      13.499  30.640  15.966  1.00  0.00     0.002 A 
HETATM    4  C   LIG     1      13.845  30.023  14.764  1.00  0.00     0.003 A 
HETATM    5  C   LIG     1      14.944  30.479  14.036  1.00  0.00     0.039 A 
HETATM    6  C   LIG     1      15.710  31.558  14.499  1.00  0.00     0.091 A 
ENDROOT
BRANCH   1   7
HETATM    7  N   LIG     1      16.103  33.296  16.251  1.00  0.00    -0.397 N 
HETATM    8  H   LIG     1      16.905  33.185  16.905  1.00  0.00     0.156 HD
HETATM    9  H   LIG     1      15.848  34.273  15.985  1.00  0.00     0.156 HD
ENDBRANCH   1   7
BRANCH   6  10
HETATM   10  O   LIG     1      16.797  31.962  13.720  1.00  0.00    -0.358 OA
HETATM   11  H   LIG     1      16.841  32.837  13.219  1.00  0.00     0.217 HD
ENDBRANCH   6  10
TORSDOF 2
ENDMDL
MODEL 20
REMARK VINA RESULT:      -4.5      2.673      3.928
REMARK  2 active torsions:
REMARK  status: ('A' for Active; 'I' for Inactive)
REMARK    1  A    between atoms: N_1  and  C_2 
REMARK    2  A    between atoms: C_7  and  O_8 
ROOT
HETATM    1  C   LIG     1      17.222  36.869  24.348  1.00  0.00     0.059 A 
HETATM    2  C   LIG     1      17.417  38.261  24.381  1.00  0.00     0.032 A 
HETATM    3  C   LIG     1      17.420  39.008  23.202  1.00  0.00     0.002 A 
HETATM    4  C   LIG     1      17.230  38.376  21.974  1.00  0.00     0.003 A 
HETATM    5  C   LIG     1      17.036  36.995  21.922  1.00  0.00     0.039 A 
HETATM    6  C   LIG     1      17.029  36.229  23.096  1.00  0.00     0.091 A 
ENDROOT
BRANCH   1   7
HETATM    7  N   LIG     1      17.226  36.145  25.586  1.00  0.00    -0.397 N 
HETATM    8  H   LIG     1      18.096  35.909  26.106  1.00  0.00     0.156 HD
HETATM    9  H   LIG     1      16.327  35.826  26.010  1.00  0.00     0.156 HD
ENDBRANCH   1   7
BRANCH   6  10
HETATM   10  O   LIG     1      16.829  34.853  22.971  1.00  0.00    -0.358 OA
HETATM   11  H   LIG     1      15.921  34.413  22.936  1.00  0.00     0.217 HD
ENDBRANCH   6  10
TORSDOF 2
ENDMDL
