REMARK  1 active torsions:
REMARK  status: ('A' for Active; 'I' for Inactive)
REMARK    1  A    between atoms: C_4  and  O_5 
ROOT
HETATM    1  C   LIG     1      -1.087  -1.856  -0.462  1.00  0.00     0.049 C 
HETATM    2  C   LIG     1      -0.207  -0.669  -0.161  1.00  0.00    -0.053 A 
HETATM    3  C   LIG     1       1.183  -0.871  -0.162  1.00  0.00     0.043 A 
HETATM    4  C   LIG     1       2.061   0.185   0.109  1.00  0.00     0.066 A 
HETATM    5  C   LIG     1       1.553   1.454   0.385  1.00  0.00     0.037 A 
HETATM    6  C   LIG     1       0.174   1.674   0.391  1.00  0.00     0.010 A 
HETATM    7  C   LIG     1      -0.721   0.624   0.120  1.00  0.00    -0.056 A 
HETATM    8  C   LIG     1      -2.200   0.905   0.137  1.00  0.00     0.049 C 
ENDROOT
BRANCH   4   9
HETATM    9  O   LIG     1       3.439  -0.018   0.107  1.00  0.00    -0.361 OA
HETATM   10  H   LIG     1       3.841  -0.927  -0.089  1.00  0.00     0.217 HD
ENDBRANCH   4   9
TORSDOF 1
