MODEL 1
REMARK VINA RESULT:      -6.8      0.000      0.000
REMARK  0 active torsions:
REMARK  status: ('A' for Active; 'I' for Inactive)
ROOT
HETATM    1  C   LIG     1      16.456  36.029  21.723  1.00  0.00     0.049 C 
HETATM    2  C   LIG     1      16.887  36.445  23.105  1.00  0.00    -0.056 A 
HETATM    3  C   LIG     1      17.214  35.458  24.052  1.00  0.00     0.014 A 
HETATM    4  C   LIG     1      17.609  35.811  25.350  1.00  0.00    -0.061 A 
HETATM    5  C   LIG     1      17.993  34.750  26.338  1.00  0.00     0.048 C 
HETATM    6  C   LIG     1      17.710  37.164  25.694  1.00  0.00     0.007 A 
HETATM    7  C   LIG     1      17.388  38.154  24.764  1.00  0.00     0.008 A 
HETATM    8  C   LIG     1      16.972  37.811  23.468  1.00  0.00    -0.056 A 
HETATM    9  C   LIG     1      16.633  38.902  22.487  1.00  0.00     0.049 C 
ENDROOT
TORSDOF 0
ENDMDL
MODEL 2
REMARK VINA RESULT:      -6.7      0.905      3.288
REMARK  0 active torsions:
REMARK  status: ('A' for Active; 'I' for Inactive)
ROOT
HETATM    1  C   LIG     1      17.509  34.930  25.605  1.00  0.00     0.049 C 
HETATM    2  C   LIG     1      17.241  35.768  24.383  1.00  0.00    -0.056 A 
HETATM    3  C   LIG     1      16.990  35.134  23.153  1.00  0.00     0.014 A 
HETATM    4  C   LIG     1      16.746  35.885  21.995  1.00  0.00    -0.061 A 
HETATM    5  C   LIG     1      16.442  35.197  20.698  1.00  0.00     0.048 C 
HETATM    6  C   LIG     1      16.719  37.283  22.074  1.00  0.00     0.007 A 
HETATM    7  C   LIG     1      16.966  37.925  23.289  1.00  0.00     0.008 A 
HETATM    8  C   LIG     1      17.232  37.182  24.450  1.00  0.00    -0.056 A 
HETATM    9  C   LIG     1      17.493  37.904  25.746  1.00  0.00     0.049 C 
ENDROOT
TORSDOF 0
ENDMDL
MODEL 3
REMARK VINA RESULT:      -6.6      0.764      2.258
REMARK  0 active torsions:
REMARK  status: ('A' for Active; 'I' for Inactive)
ROOT
HETATM    1  C   LIG     1      16.885  38.778  22.776  1.00  0.00     0.049 C 
HETATM    2  C   LIG     1      17.098  37.465  23.482  1.00  0.00    -0.056 A 
HETATM    3  C   LIG     1      17.587  37.461  24.801  1.00  0.00     0.014 A 
HETATM    4  C   LIG     1      17.805  36.256  25.482  1.00  0.00    -0.061 A 
HETATM    5  C   LIG     1      18.290  36.267  26.901  1.00  0.00     0.048 C 
HETATM    6  C   LIG     1      17.499  35.044  24.851  1.00  0.00     0.007 A 
HETATM    7  C   LIG     1      17.013  35.033  23.543  1.00  0.00     0.008 A 
HETATM    8  C   LIG     1      16.811  36.234  22.844  1.00  0.00    -0.056 A 
HETATM    9  C   LIG     1      16.284  36.189  21.434  1.00  0.00     0.049 C 
ENDROOT
TORSDOF 0
ENDMDL
MODEL 4
REMARK VINA RESULT:      -6.6      2.680      5.019
REMARK  0 active torsions:
REMARK  status: ('A' for Active; 'I' for Inactive)
ROOT
HETATM    1  C   LIG     1      16.922  39.051  22.851  1.00  0.00     0.049 C 
HETATM    2  C   LIG     1      17.617  38.319  21.734  1.00  0.00    -0.056 A 
HETATM    3  C   LIG     1      18.627  38.971  21.004  1.00  0.00     0.014 A 
HETATM    4  C   LIG     1      19.287  38.321  19.952  1.00  0.00    -0.061 A 
HETATM    5  C   LIG     1      20.389  39.014  19.207  1.00  0.00     0.048 C 
HETATM    6  C   LIG     1      18.958  36.994  19.649  1.00  0.00     0.007 A 
HETATM    7  C   LIG     1      17.958  36.334  20.365  1.00  0.00     0.008 A 
HETATM    8  C   LIG     1      17.276  36.984  21.407  1.00  0.00    -0.056 A 
HETATM    9  C   LIG     1      16.203  36.244  22.162  1.00  0.00     0.049 C 
ENDROOT
TORSDOF 0
ENDMDL
MODEL 5
REMARK VINA RESULT:      -6.6      2.656      4.381
REMARK  0 active torsions:
REMARK  status: ('A' for Active; 'I' for Inactive)
ROOT
HETATM    1  C   LIG     1      16.829  35.558  20.881  1.00  0.00     0.049 C 
HETATM    2  C   LIG     1      17.518  36.890  21.012  1.00  0.00    -0.056 A 
HETATM    3  C   LIG     1      18.573  37.211  20.139  1.00  0.00     0.014 A 
HETATM    4  C   LIG     1      19.242  38.438  20.241  1.00  0.00    -0.061 A 
HETATM    5  C   LIG     1      20.338  38.784  19.278  1.00  0.00     0.048 C 
HETATM    6  C   LIG     1      18.830  39.368  21.203  1.00  0.00     0.007 A 
HETATM    7  C   LIG     1      17.785  39.063  22.077  1.00  0.00     0.008 A 
HETATM    8  C   LIG     1      17.122  37.828  21.997  1.00  0.00    -0.056 A 
HETATM    9  C   LIG     1      15.997  37.529  22.952  1.00  0.00     0.049 C 
ENDROOT
TORSDOF 0
ENDMDL
MODEL 6
REMARK VINA RESULT:      -6.3      2.085      3.744
REMARK  0 active torsions:
REMARK  status: ('A' for Active; 'I' for Inactive)
ROOT
HETATM    1  C   LIG     1      19.126  39.493  20.426  1.00  0.00     0.049 C 
HETATM    2  C   LIG     1      18.381  38.373  21.103  1.00  0.00    -0.056 A 
HETATM    3  C   LIG     1      17.916  38.548  22.418  1.00  0.00     0.014 A 
HETATM    4  C   LIG     1      17.228  37.522  23.080  1.00  0.00    -0.061 A 
HETATM    5  C   LIG     1      16.704  37.736  24.469  1.00  0.00     0.048 C 
HETATM    6  C   LIG     1      16.972  36.321  22.408  1.00  0.00     0.007 A 
HETATM    7  C   LIG     1      17.426  36.133  21.102  1.00  0.00     0.008 A 
HETATM    8  C   LIG     1      18.135  37.147  20.437  1.00  0.00    -0.056 A 
HETATM    9  C   LIG     1      18.611  36.914  19.028  1.00  0.00     0.049 C 
ENDROOT
TORSDOF 0
ENDMDL
MODEL 7
REMARK VINA RESULT:      -6.3      2.721      3.556
REMARK  0 active torsions:
REMARK  status: ('A' for Active; 'I' for Inactive)
ROOT
HETATM    1  C   LIG     1      19.254  37.063  19.503  1.00  0.00     0.049 C 
HETATM    2  C   LIG     1      18.129  37.044  20.505  1.00  0.00    -0.056 A 
HETATM    3  C   LIG     1      17.269  35.933  20.556  1.00  0.00     0.014 A 
HETATM    4  C   LIG     1      16.207  35.889  21.471  1.00  0.00    -0.061 A 
HETATM    5  C   LIG     1      15.320  34.682  21.541  1.00  0.00     0.048 C 
HETATM    6  C   LIG     1      16.025  36.950  22.366  1.00  0.00     0.007 A 
HETATM    7  C   LIG     1      16.872  38.059  22.326  1.00  0.00     0.008 A 
HETATM    8  C   LIG     1      17.926  38.123  21.400  1.00  0.00    -0.056 A 
HETATM    9  C   LIG     1      18.823  39.332  21.383  1.00  0.00     0.049 C 
ENDROOT
TORSDOF 0
ENDMDL
MODEL 8
REMARK VINA RESULT:      -6.1      0.882      4.006
REMARK  0 active torsions:
REMARK  status: ('A' for Active; 'I' for Inactive)
ROOT
HETATM    1  C   LIG     1      18.192  37.336  26.437  1.00  0.00     0.049 C 
HETATM    2  C   LIG     1      17.767  37.054  25.020  1.00  0.00    -0.056 A 
HETATM    3  C   LIG     1      17.822  38.085  24.065  1.00  0.00     0.014 A 
HETATM    4  C   LIG     1      17.424  37.858  22.740  1.00  0.00    -0.061 A 
HETATM    5  C   LIG     1      17.523  38.955  21.722  1.00  0.00     0.048 C 
HETATM    6  C   LIG     1      17.000  36.579  22.358  1.00  0.00     0.007 A 
HETATM    7  C   LIG     1      16.942  35.547  23.296  1.00  0.00     0.008 A 
HETATM    8  C   LIG     1      17.318  35.769  24.630  1.00  0.00    -0.056 A 
HETATM    9  C   LIG     1      17.245  34.634  25.618  1.00  0.00     0.049 C 
ENDROOT
TORSDOF 0
ENDMDL
MODEL 9
REMARK VINA RESULT:      -6.0      2.018      3.209
REMARK  0 active torsions:
REMARK  status: ('A' for Active; 'I' for Inactive)
ROOT
HETATM    1  C   LIG     1      16.766  35.478  20.606  1.00  0.00     0.049 C 
HETATM    2  C   LIG     1      17.344  36.699  21.270  1.00  0.00    -0.056 A 
HETATM    3  C   LIG     1      16.982  37.001  22.595  1.00  0.00     0.014 A 
HETATM    4  C   LIG     1      17.494  38.136  23.238  1.00  0.00    -0.061 A 
HETATM    5  C   LIG     1      17.130  38.426  24.664  1.00  0.00     0.048 C 
HETATM    6  C   LIG     1      18.404  38.958  22.562  1.00  0.00     0.007 A 
HETATM    7  C   LIG     1      18.773  38.670  21.248  1.00  0.00     0.008 A 
HETATM    8  C   LIG     1      18.249  37.547  20.587  1.00  0.00    -0.056 A 
HETATM    9  C   LIG     1      18.667  37.263  19.168  1.00  0.00     0.049 C 
ENDROOT
TORSDOF 0
ENDMDL
MODEL 10
REMARK VINA RESULT:      -5.9      1.150      3.173
REMARK  0 active torsions:
REMARK  status: ('A' for Active; 'I' for Inactive)
ROOT
HETATM    1  C   LIG     1      17.213  39.248  22.537  1.00  0.00     0.049 C 
HETATM    2  C   LIG     1      17.109  37.777  22.840  1.00  0.00    -0.056 A 
HETATM    3  C   LIG     1      16.800  36.878  21.803  1.00  0.00     0.014 A 
HETATM    4  C   LIG     1      16.686  35.504  22.054  1.00  0.00    -0.061 A 
HETATM    5  C   LIG     1      16.394  34.552  20.933  1.00  0.00     0.048 C 
HETATM    6  C   LIG     1      16.918  35.019  23.347  1.00  0.00     0.007 A 
HETATM    7  C   LIG     1      17.226  35.899  24.386  1.00  0.00     0.008 A 
HETATM    8  C   LIG     1      17.322  37.280  24.149  1.00  0.00    -0.056 A 
HETATM    9  C   LIG     1      17.658  38.204  25.290  1.00  0.00     0.049 C 
ENDROOT
TORSDOF 0
ENDMDL
MODEL 11
REMARK VINA RESULT:      -5.8      7.903     10.482
REMARK  0 active torsions:
REMARK  status: ('A' for Active; 'I' for Inactive)
ROOT
HETATM    1  C   LIG     1      16.824  32.935  15.057  1.00  0.00     0.049 C 
HETATM    2  C   LIG     1      15.563  32.209  15.444  1.00  0.00    -0.056 A 
HETATM    3  C   LIG     1      15.171  31.070  14.718  1.00  0.00     0.014 A 
HETATM    4  C   LIG     1      13.997  30.378  15.046  1.00  0.00    -0.061 A 
HETATM    5  C   LIG     1      13.611  29.143  14.288  1.00  0.00     0.048 C 
HETATM    6  C   LIG     1      13.226  30.807  16.133  1.00  0.00     0.007 A 
HETATM    7  C   LIG     1      13.603  31.935  16.863  1.00  0.00     0.008 A 
HETATM    8  C   LIG     1      14.766  32.648  16.529  1.00  0.00    -0.056 A 
HETATM    9  C   LIG     1      15.147  33.861  17.337  1.00  0.00     0.049 C 
ENDROOT
TORSDOF 0
ENDMDL
MODEL 12
REMARK VINA RESULT:      -5.7      1.126      3.294
REMARK  0 active torsions:
REMARK  status: ('A' for Active; 'I' for Inactive)
ROOT
HETATM    1  C   LIG     1      16.443  34.845  22.275  1.00  0.00     0.049 C 
HETATM    2  C   LIG     1      17.022  36.072  22.929  1.00  0.00    -0.056 A 
HETATM    3  C   LIG     1      17.287  37.211  22.147  1.00  0.00     0.014 A 
HETATM    4  C   LIG     1      17.835  38.365  22.724  1.00  0.00    -0.061 A 
HETATM    5  C   LIG     1      18.077  39.586  21.887  1.00  0.00     0.048 C 
HETATM    6  C   LIG     1      18.089  38.393  24.100  1.00  0.00     0.007 A 
HETATM    7  C   LIG     1      17.831  37.270  24.888  1.00  0.00     0.008 A 
HETATM    8  C   LIG     1      17.301  36.101  24.317  1.00  0.00    -0.056 A 
HETATM    9  C   LIG     1      17.032  34.906  25.193  1.00  0.00     0.049 C 
ENDROOT
TORSDOF 0
ENDMDL
MODEL 13
REMARK VINA RESULT:      -5.6      8.176     10.748
REMARK  0 active torsions:
REMARK  status: ('A' for Active; 'I' for Inactive)
ROOT
HETATM    1  C   LIG     1      15.695  30.645  13.531  1.00  0.00     0.049 C 
HETATM    2  C   LIG     1      14.925  31.071  14.753  1.00  0.00    -0.056 A 
HETATM    3  C   LIG     1      15.376  32.170  15.505  1.00  0.00     0.014 A 
HETATM    4  C   LIG     1      14.687  32.586  16.653  1.00  0.00    -0.061 A 
HETATM    5  C   LIG     1      15.156  33.783  17.424  1.00  0.00     0.048 C 
HETATM    6  C   LIG     1      13.517  31.917  17.033  1.00  0.00     0.007 A 
HETATM    7  C   LIG     1      13.058  30.824  16.296  1.00  0.00     0.008 A 
HETATM    8  C   LIG     1      13.753  30.387  15.156  1.00  0.00    -0.056 A 
HETATM    9  C   LIG     1      13.231  29.206  14.381  1.00  0.00     0.049 C 
ENDROOT
TORSDOF 0
ENDMDL
MODEL 14
REMARK VINA RESULT:      -5.6      9.052     10.631
REMARK  0 active torsions:
REMARK  status: ('A' for Active; 'I' for Inactive)
ROOT
HETATM    1  C   LIG     1      14.378  29.558  14.120  1.00  0.00     0.049 C 
HETATM    2  C   LIG     1      14.834  30.786  14.863  1.00  0.00    -0.056 A 
HETATM    3  C   LIG     1      16.000  31.452  14.447  1.00  0.00     0.014 A 
HETATM    4  C   LIG     1      16.456  32.592  15.123  1.00  0.00    -0.061 A 
HETATM    5  C   LIG     1      17.680  33.315  14.646  1.00  0.00     0.048 C 
HETATM    6  C   LIG     1      15.720  33.091  16.205  1.00  0.00     0.007 A 
HETATM    7  C   LIG     1      14.560  32.440  16.628  1.00  0.00     0.008 A 
HETATM    8  C   LIG     1      14.106  31.285  15.971  1.00  0.00    -0.056 A 
HETATM    9  C   LIG     1      12.850  30.606  16.451  1.00  0.00     0.049 C 
ENDROOT
TORSDOF 0
ENDMDL
MODEL 15
REMARK VINA RESULT:      -5.6      9.718     11.292
REMARK  0 active torsions:
REMARK  status: ('A' for Active; 'I' for Inactive)
ROOT
HETATM    1  C   LIG     1      13.727  31.184  16.994  1.00  0.00     0.049 C 
HETATM    2  C   LIG     1      14.594  31.363  15.776  1.00  0.00    -0.056 A 
HETATM    3  C   LIG     1      15.587  32.358  15.775  1.00  0.00     0.014 A 
HETATM    4  C   LIG     1      16.404  32.556  14.653  1.00  0.00    -0.061 A 
HETATM    5  C   LIG     1      17.485  33.595  14.680  1.00  0.00     0.048 C 
HETATM    6  C   LIG     1      16.249  31.729  13.534  1.00  0.00     0.007 A 
HETATM    7  C   LIG     1      15.268  30.737  13.521  1.00  0.00     0.008 A 
HETATM    8  C   LIG     1      14.430  30.544  14.632  1.00  0.00    -0.056 A 
HETATM    9  C   LIG     1      13.381  29.464  14.588  1.00  0.00     0.049 C 
ENDROOT
TORSDOF 0
ENDMDL
MODEL 16
REMARK VINA RESULT:      -5.3      7.732     10.364
REMARK  0 active torsions:
REMARK  status: ('A' for Active; 'I' for Inactive)
ROOT
HETATM    1  C   LIG     1      12.753  30.211  16.075  1.00  0.00     0.049 C 
HETATM    2  C   LIG     1      13.935  31.128  15.904  1.00  0.00    -0.056 A 
HETATM    3  C   LIG     1      14.062  32.253  16.738  1.00  0.00     0.014 A 
HETATM    4  C   LIG     1      15.145  33.132  16.599  1.00  0.00    -0.061 A 
HETATM    5  C   LIG     1      15.289  34.306  17.520  1.00  0.00     0.048 C 
HETATM    6  C   LIG     1      16.129  32.864  15.639  1.00  0.00     0.007 A 
HETATM    7  C   LIG     1      16.016  31.751  14.805  1.00  0.00     0.008 A 
HETATM    8  C   LIG     1      14.924  30.876  14.922  1.00  0.00    -0.056 A 
HETATM    9  C   LIG     1      14.831  29.683  14.008  1.00  0.00     0.049 C 
ENDROOT
TORSDOF 0
ENDMDL
MODEL 17
REMARK VINA RESULT:      -5.0      7.967     10.360
REMARK  0 active torsions:
REMARK  status: ('A' for Active; 'I' for Inactive)
ROOT
HETATM    1  C   LIG     1      13.310  29.633  14.670  1.00  0.00     0.049 C 
HETATM    2  C   LIG     1      14.214  30.661  15.296  1.00  0.00    -0.056 A 
HETATM    3  C   LIG     1      14.022  31.024  16.641  1.00  0.00     0.014 A 
HETATM    4  C   LIG     1      14.840  31.985  17.250  1.00  0.00    -0.061 A 
HETATM    5  C   LIG     1      14.649  32.334  18.695  1.00  0.00     0.048 C 
HETATM    6  C   LIG     1      15.884  32.564  16.517  1.00  0.00     0.007 A 
HETATM    7  C   LIG     1      16.086  32.214  15.181  1.00  0.00     0.008 A 
HETATM    8  C   LIG     1      15.259  31.267  14.556  1.00  0.00    -0.056 A 
HETATM    9  C   LIG     1      15.504  30.909  13.114  1.00  0.00     0.049 C 
ENDROOT
TORSDOF 0
ENDMDL
MODEL 18
REMARK VINA RESULT:      -4.9      9.842     12.164
REMARK  0 active torsions:
REMARK  status: ('A' for Active; 'I' for Inactive)
ROOT
HETATM    1  C   LIG     1      12.778  27.984  13.871  1.00  0.00     0.049 C 
HETATM    2  C   LIG     1      13.557  29.157  14.405  1.00  0.00    -0.056 A 
HETATM    3  C   LIG     1      12.942  30.037  15.313  1.00  0.00     0.014 A 
HETATM    4  C   LIG     1      13.636  31.144  15.822  1.00  0.00    -0.061 A 
HETATM    5  C   LIG     1      12.982  32.054  16.819  1.00  0.00     0.048 C 
HETATM    6  C   LIG     1      14.968  31.353  15.446  1.00  0.00     0.007 A 
HETATM    7  C   LIG     1      15.591  30.486  14.546  1.00  0.00     0.008 A 
HETATM    8  C   LIG     1      14.898  29.387  14.015  1.00  0.00    -0.056 A 
HETATM    9  C   LIG     1      15.598  28.469  13.047  1.00  0.00     0.049 C 
ENDROOT
TORSDOF 0
ENDMDL
MODEL 19
REMARK VINA RESULT:      -4.5     10.465     12.670
REMARK  0 active torsions:
REMARK  status: ('A' for Active; 'I' for Inactive)
ROOT
HETATM    1  C   LIG     1      12.788  31.329  16.082  1.00  0.00     0.049 C 
HETATM    2  C   LIG     1      13.502  30.347  15.191  1.00  0.00    -0.056 A 
HETATM    3  C   LIG     1      12.821  29.204  14.737  1.00  0.00     0.014 A 
HETATM    4  C   LIG     1      13.460  28.267  13.914  1.00  0.00    -0.061 A 
HETATM    5  C   LIG     1      12.711  27.072  13.405  1.00  0.00     0.048 C 
HETATM    6  C   LIG     1      14.783  28.492  13.513  1.00  0.00     0.007 A 
HETATM    7  C   LIG     1      15.471  29.623  13.956  1.00  0.00     0.008 A 
HETATM    8  C   LIG     1      14.846  30.557  14.797  1.00  0.00    -0.056 A 
HETATM    9  C   LIG     1      15.615  31.768  15.257  1.00  0.00     0.049 C 
ENDROOT
TORSDOF 0
ENDMDL
MODEL 20
REMARK VINA RESULT:      -3.9     15.777     17.099
REMARK  0 active torsions:
REMARK  status: ('A' for Active; 'I' for Inactive)
ROOT
HETATM    1  C   LIG     1      29.203  32.143  37.598  1.00  0.00     0.049 C 
HETATM    2  C   LIG     1      28.292  31.464  36.609  1.00  0.00    -0.056 A 
HETATM    3  C   LIG     1      28.829  30.952  35.414  1.00  0.00     0.014 A 
HETATM    4  C   LIG     1      28.006  30.323  34.470  1.00  0.00    -0.061 A 
HETATM    5  C   LIG     1      28.597  29.747  33.217  1.00  0.00     0.048 C 
HETATM    6  C   LIG     1      26.640  30.174  34.738  1.00  0.00     0.007 A 
HETATM    7  C   LIG     1      26.094  30.677  35.919  1.00  0.00     0.008 A 
HETATM    8  C   LIG     1      26.906  31.327  36.863  1.00  0.00    -0.056 A 
HETATM    9  C   LIG     1      26.287  31.858  38.129  1.00  0.00     0.049 C 
ENDROOT
TORSDOF 0
ENDMDL
