REMARK  0 active torsions:
REMARK  status: ('A' for Active; 'I' for Inactive)
ROOT
HETATM    1  C   LIG     1      -1.517   1.889   0.214  1.00  0.00     0.049 C 
HETATM    2  C   LIG     1      -0.587   0.713   0.073  1.00  0.00    -0.056 A 
HETATM    3  C   LIG     1       0.802   0.931   0.041  1.00  0.00     0.014 A 
HETATM    4  C   LIG     1       1.694  -0.141  -0.099  1.00  0.00    -0.061 A 
HETATM    5  C   LIG     1       3.174   0.101  -0.093  1.00  0.00     0.048 C 
HETATM    6  C   LIG     1       1.194  -1.447  -0.173  1.00  0.00     0.007 A 
HETATM    7  C   LIG     1      -0.182  -1.678  -0.142  1.00  0.00     0.008 A 
HETATM    8  C   LIG     1      -1.085  -0.609  -0.023  1.00  0.00    -0.056 A 
HETATM    9  C   LIG     1      -2.564  -0.891   0.009  1.00  0.00     0.049 C 
ENDROOT
TORSDOF 0
