MODEL 1
REMARK VINA RESULT:      -6.8      0.000      0.000
REMARK  1 active torsions:
REMARK  status: ('A' for Active; 'I' for Inactive)
REMARK    1  A    between atoms: C_4  and  O_5 
ROOT
HETATM    1  C   LIG     1      17.176  39.097  22.700  1.00  0.00     0.049 C 
HETATM    2  C   LIG     1      17.923  38.476  21.547  1.00  0.00    -0.053 A 
HETATM    3  C   LIG     1      18.877  39.268  20.887  1.00  0.00     0.043 A 
HETATM    4  C   LIG     1      19.608  38.758  19.807  1.00  0.00     0.066 A 
HETATM    5  C   LIG     1      19.389  37.449  19.379  1.00  0.00     0.037 A 
HETATM    6  C   LIG     1      18.444  36.647  20.023  1.00  0.00     0.010 A 
HETATM    7  C   LIG     1      17.702  37.144  21.109  1.00  0.00    -0.056 A 
HETATM    8  C   LIG     1      16.694  36.245  21.774  1.00  0.00     0.049 C 
ENDROOT
BRANCH   4   9
HETATM    9  O   LIG     1      20.554  39.545  19.154  1.00  0.00    -0.361 OA
HETATM   10  H   LIG     1      20.841  39.349  18.203  1.00  0.00     0.217 HD
ENDBRANCH   4   9
TORSDOF 1
ENDMDL
MODEL 2
REMARK VINA RESULT:      -6.6      2.468      3.570
REMARK  1 active torsions:
REMARK  status: ('A' for Active; 'I' for Inactive)
REMARK    1  A    between atoms: C_4  and  O_5 
ROOT
HETATM    1  C   LIG     1      18.985  39.557  20.700  1.00  0.00     0.049 C 
HETATM    2  C   LIG     1      18.080  38.450  21.178  1.00  0.00    -0.053 A 
HETATM    3  C   LIG     1      17.154  38.754  22.189  1.00  0.00     0.043 A 
HETATM    4  C   LIG     1      16.283  37.776  22.682  1.00  0.00     0.066 A 
HETATM    5  C   LIG     1      16.333  36.481  22.166  1.00  0.00     0.037 A 
HETATM    6  C   LIG     1      17.247  36.159  21.161  1.00  0.00     0.010 A 
HETATM    7  C   LIG     1      18.128  37.131  20.654  1.00  0.00    -0.056 A 
HETATM    8  C   LIG     1      19.098  36.741  19.571  1.00  0.00     0.049 C 
ENDROOT
BRANCH   4   9
HETATM    9  O   LIG     1      15.365  38.081  23.684  1.00  0.00    -0.361 OA
HETATM   10  H   LIG     1      15.602  38.702  24.449  1.00  0.00     0.217 HD
ENDBRANCH   4   9
TORSDOF 1
ENDMDL
MODEL 3
REMARK VINA RESULT:      -6.1      3.683      4.800
REMARK  1 active torsions:
REMARK  status: ('A' for Active; 'I' for Inactive)
REMARK    1  A    between atoms: C_4  and  O_5 
ROOT
HETATM    1  C   LIG     1      17.049  38.840  22.731  1.00  0.00     0.049 C 
HETATM    2  C   LIG     1      17.139  37.507  23.430  1.00  0.00    -0.053 A 
HETATM    3  C   LIG     1      17.405  37.510  24.809  1.00  0.00     0.043 A 
HETATM    4  C   LIG     1      17.503  36.311  25.523  1.00  0.00     0.066 A 
HETATM    5  C   LIG     1      17.336  35.095  24.860  1.00  0.00     0.037 A 
HETATM    6  C   LIG     1      17.072  35.071  23.489  1.00  0.00     0.010 A 
HETATM    7  C   LIG     1      16.969  36.268  22.758  1.00  0.00    -0.056 A 
HETATM    8  C   LIG     1      16.683  36.197  21.282  1.00  0.00     0.049 C 
ENDROOT
BRANCH   4   9
HETATM    9  O   LIG     1      17.766  36.317  26.891  1.00  0.00    -0.361 OA
HETATM   10  H   LIG     1      17.048  36.098  27.570  1.00  0.00     0.217 HD
ENDBRANCH   4   9
TORSDOF 1
ENDMDL
MODEL 4
REMARK VINA RESULT:      -6.1      3.089      4.462
REMARK  1 active torsions:
REMARK  status: ('A' for Active; 'I' for Inactive)
REMARK    1  A    between atoms: C_4  and  O_5 
ROOT
HETATM    1  C   LIG     1      17.409  34.913  25.573  1.00  0.00     0.049 C 
HETATM    2  C   LIG     1      17.232  35.738  24.324  1.00  0.00    -0.053 A 
HETATM    3  C   LIG     1      17.080  35.053  23.106  1.00  0.00     0.043 A 
HETATM    4  C   LIG     1      16.913  35.754  21.906  1.00  0.00     0.066 A 
HETATM    5  C   LIG     1      16.897  37.148  21.915  1.00  0.00     0.037 A 
HETATM    6  C   LIG     1      17.047  37.846  23.115  1.00  0.00     0.010 A 
HETATM    7  C   LIG     1      17.216  37.157  24.329  1.00  0.00    -0.056 A 
HETATM    8  C   LIG     1      17.374  37.949  25.600  1.00  0.00     0.049 C 
ENDROOT
BRANCH   4   9
HETATM    9  O   LIG     1      16.762  35.072  20.701  1.00  0.00    -0.361 OA
HETATM   10  H   LIG     1      16.068  35.351  20.017  1.00  0.00     0.217 HD
ENDBRANCH   4   9
TORSDOF 1
ENDMDL
MODEL 5
REMARK VINA RESULT:      -6.0      2.493      3.935
REMARK  1 active torsions:
REMARK  status: ('A' for Active; 'I' for Inactive)
REMARK    1  A    between atoms: C_4  and  O_5 
ROOT
HETATM    1  C   LIG     1      16.775  35.087  20.879  1.00  0.00     0.049 C 
HETATM    2  C   LIG     1      17.155  36.418  21.477  1.00  0.00    -0.053 A 
HETATM    3  C   LIG     1      16.595  36.760  22.719  1.00  0.00     0.043 A 
HETATM    4  C   LIG     1      16.902  37.979  23.333  1.00  0.00     0.066 A 
HETATM    5  C   LIG     1      17.774  38.869  22.706  1.00  0.00     0.037 A 
HETATM    6  C   LIG     1      18.340  38.548  21.471  1.00  0.00     0.010 A 
HETATM    7  C   LIG     1      18.042  37.327  20.841  1.00  0.00    -0.056 A 
HETATM    8  C   LIG     1      18.675  37.020  19.510  1.00  0.00     0.049 C 
ENDROOT
BRANCH   4   9
HETATM    9  O   LIG     1      16.346  38.315  24.565  1.00  0.00    -0.361 OA
HETATM   10  H   LIG     1      16.844  38.890  25.233  1.00  0.00     0.217 HD
ENDBRANCH   4   9
TORSDOF 1
ENDMDL
MODEL 6
REMARK VINA RESULT:      -6.0      0.863      2.233
REMARK  1 active torsions:
REMARK  status: ('A' for Active; 'I' for Inactive)
REMARK    1  A    between atoms: C_4  and  O_5 
ROOT
HETATM    1  C   LIG     1      17.285  35.752  20.707  1.00  0.00     0.049 C 
HETATM    2  C   LIG     1      17.882  37.131  20.840  1.00  0.00    -0.053 A 
HETATM    3  C   LIG     1      18.839  37.521  19.889  1.00  0.00     0.043 A 
HETATM    4  C   LIG     1      19.435  38.786  19.950  1.00  0.00     0.066 A 
HETATM    5  C   LIG     1      19.078  39.672  20.966  1.00  0.00     0.037 A 
HETATM    6  C   LIG     1      18.129  39.301  21.921  1.00  0.00     0.010 A 
HETATM    7  C   LIG     1      17.520  38.034  21.873  1.00  0.00    -0.056 A 
HETATM    8  C   LIG     1      16.502  37.675  22.923  1.00  0.00     0.049 C 
ENDROOT
BRANCH   4   9
HETATM    9  O   LIG     1      20.383  39.171  19.005  1.00  0.00    -0.361 OA
HETATM   10  H   LIG     1      20.321  40.060  18.522  1.00  0.00     0.217 HD
ENDBRANCH   4   9
TORSDOF 1
ENDMDL
MODEL 7
REMARK VINA RESULT:      -6.0      3.895      5.404
REMARK  1 active torsions:
REMARK  status: ('A' for Active; 'I' for Inactive)
REMARK    1  A    between atoms: C_4  and  O_5 
ROOT
HETATM    1  C   LIG     1      16.561  35.709  21.778  1.00  0.00     0.049 C 
HETATM    2  C   LIG     1      16.968  36.183  23.151  1.00  0.00    -0.053 A 
HETATM    3  C   LIG     1      17.203  35.208  24.134  1.00  0.00     0.043 A 
HETATM    4  C   LIG     1      17.584  35.575  25.430  1.00  0.00     0.066 A 
HETATM    5  C   LIG     1      17.732  36.923  25.753  1.00  0.00     0.037 A 
HETATM    6  C   LIG     1      17.503  37.907  24.789  1.00  0.00     0.010 A 
HETATM    7  C   LIG     1      17.120  37.555  23.482  1.00  0.00    -0.056 A 
HETATM    8  C   LIG     1      16.883  38.648  22.474  1.00  0.00     0.049 C 
ENDROOT
BRANCH   4   9
HETATM    9  O   LIG     1      17.816  34.606  26.404  1.00  0.00    -0.361 OA
HETATM   10  H   LIG     1      17.640  33.624  26.227  1.00  0.00     0.217 HD
ENDBRANCH   4   9
TORSDOF 1
ENDMDL
MODEL 8
REMARK VINA RESULT:      -5.9      2.598      4.205
REMARK  1 active torsions:
REMARK  status: ('A' for Active; 'I' for Inactive)
REMARK    1  A    between atoms: C_4  and  O_5 
ROOT
HETATM    1  C   LIG     1      19.217  37.023  19.471  1.00  0.00     0.049 C 
HETATM    2  C   LIG     1      18.153  37.093  20.538  1.00  0.00    -0.053 A 
HETATM    3  C   LIG     1      17.336  35.965  20.718  1.00  0.00     0.043 A 
HETATM    4  C   LIG     1      16.328  35.958  21.689  1.00  0.00     0.066 A 
HETATM    5  C   LIG     1      16.129  37.083  22.488  1.00  0.00     0.037 A 
HETATM    6  C   LIG     1      16.931  38.214  22.324  1.00  0.00     0.010 A 
HETATM    7  C   LIG     1      17.948  38.237  21.353  1.00  0.00    -0.056 A 
HETATM    8  C   LIG     1      18.790  39.477  21.209  1.00  0.00     0.049 C 
ENDROOT
BRANCH   4   9
HETATM    9  O   LIG     1      15.519  34.838  21.866  1.00  0.00    -0.361 OA
HETATM   10  H   LIG     1      14.539  34.924  22.109  1.00  0.00     0.217 HD
ENDBRANCH   4   9
TORSDOF 1
ENDMDL
MODEL 9
REMARK VINA RESULT:      -5.7      8.422      9.843
REMARK  1 active torsions:
REMARK  status: ('A' for Active; 'I' for Inactive)
REMARK    1  A    between atoms: C_4  and  O_5 
ROOT
HETATM    1  C   LIG     1      13.266  29.489  14.495  1.00  0.00     0.049 C 
HETATM    2  C   LIG     1      14.025  30.543  15.260  1.00  0.00    -0.053 A 
HETATM    3  C   LIG     1      13.629  30.799  16.583  1.00  0.00     0.043 A 
HETATM    4  C   LIG     1      14.288  31.764  17.354  1.00  0.00     0.066 A 
HETATM    5  C   LIG     1      15.349  32.483  16.805  1.00  0.00     0.037 A 
HETATM    6  C   LIG     1      15.756  32.243  15.491  1.00  0.00     0.010 A 
HETATM    7  C   LIG     1      15.106  31.276  14.704  1.00  0.00    -0.056 A 
HETATM    8  C   LIG     1      15.577  31.049  13.292  1.00  0.00     0.049 C 
ENDROOT
BRANCH   4   9
HETATM    9  O   LIG     1      13.894  32.016  18.666  1.00  0.00    -0.361 OA
HETATM   10  H   LIG     1      12.936  32.253  18.897  1.00  0.00     0.217 HD
ENDBRANCH   4   9
TORSDOF 1
ENDMDL
MODEL 10
REMARK VINA RESULT:      -5.7      9.372     10.554
REMARK  1 active torsions:
REMARK  status: ('A' for Active; 'I' for Inactive)
REMARK    1  A    between atoms: C_4  and  O_5 
ROOT
HETATM    1  C   LIG     1      13.675  32.179  17.127  1.00  0.00     0.049 C 
HETATM    2  C   LIG     1      14.093  31.352  15.937  1.00  0.00    -0.053 A 
HETATM    3  C   LIG     1      13.222  30.335  15.512  1.00  0.00     0.043 A 
HETATM    4  C   LIG     1      13.545  29.527  14.415  1.00  0.00     0.066 A 
HETATM    5  C   LIG     1      14.745  29.731  13.734  1.00  0.00     0.037 A 
HETATM    6  C   LIG     1      15.623  30.737  14.143  1.00  0.00     0.010 A 
HETATM    7  C   LIG     1      15.313  31.557  15.242  1.00  0.00    -0.056 A 
HETATM    8  C   LIG     1      16.289  32.629  15.649  1.00  0.00     0.049 C 
ENDROOT
BRANCH   4   9
HETATM    9  O   LIG     1      12.679  28.520  13.995  1.00  0.00    -0.361 OA
HETATM   10  H   LIG     1      12.888  27.541  14.153  1.00  0.00     0.217 HD
ENDBRANCH   4   9
TORSDOF 1
ENDMDL
MODEL 11
REMARK VINA RESULT:      -5.7      7.866      9.223
REMARK  1 active torsions:
REMARK  status: ('A' for Active; 'I' for Inactive)
REMARK    1  A    between atoms: C_4  and  O_5 
ROOT
HETATM    1  C   LIG     1      15.990  31.678  13.673  1.00  0.00     0.049 C 
HETATM    2  C   LIG     1      15.254  31.693  14.989  1.00  0.00    -0.053 A 
HETATM    3  C   LIG     1      15.576  32.709  15.904  1.00  0.00     0.043 A 
HETATM    4  C   LIG     1      14.934  32.785  17.146  1.00  0.00     0.066 A 
HETATM    5  C   LIG     1      13.963  31.842  17.482  1.00  0.00     0.037 A 
HETATM    6  C   LIG     1      13.630  30.825  16.585  1.00  0.00     0.010 A 
HETATM    7  C   LIG     1      14.265  30.735  15.334  1.00  0.00    -0.056 A 
HETATM    8  C   LIG     1      13.876  29.622  14.398  1.00  0.00     0.049 C 
ENDROOT
BRANCH   4   9
HETATM    9  O   LIG     1      15.255  33.793  18.051  1.00  0.00    -0.361 OA
HETATM   10  H   LIG     1      15.052  34.767  17.856  1.00  0.00     0.217 HD
ENDBRANCH   4   9
TORSDOF 1
ENDMDL
MODEL 12
REMARK VINA RESULT:      -5.6      2.907      3.903
REMARK  1 active torsions:
REMARK  status: ('A' for Active; 'I' for Inactive)
REMARK    1  A    between atoms: C_4  and  O_5 
ROOT
HETATM    1  C   LIG     1      17.286  39.261  22.745  1.00  0.00     0.049 C 
HETATM    2  C   LIG     1      17.169  37.760  22.825  1.00  0.00    -0.053 A 
HETATM    3  C   LIG     1      16.988  37.056  21.623  1.00  0.00     0.043 A 
HETATM    4  C   LIG     1      16.872  35.661  21.620  1.00  0.00     0.066 A 
HETATM    5  C   LIG     1      16.935  34.959  22.823  1.00  0.00     0.037 A 
HETATM    6  C   LIG     1      17.114  35.641  24.028  1.00  0.00     0.010 A 
HETATM    7  C   LIG     1      17.233  37.042  24.048  1.00  0.00    -0.056 A 
HETATM    8  C   LIG     1      17.425  37.739  25.369  1.00  0.00     0.049 C 
ENDROOT
BRANCH   4   9
HETATM    9  O   LIG     1      16.692  34.965  20.427  1.00  0.00    -0.361 OA
HETATM   10  H   LIG     1      16.362  35.426  19.588  1.00  0.00     0.217 HD
ENDBRANCH   4   9
TORSDOF 1
ENDMDL
MODEL 13
REMARK VINA RESULT:      -5.6      2.596      3.495
REMARK  1 active torsions:
REMARK  status: ('A' for Active; 'I' for Inactive)
REMARK    1  A    between atoms: C_4  and  O_5 
ROOT
HETATM    1  C   LIG     1      17.590  37.724  26.049  1.00  0.00     0.049 C 
HETATM    2  C   LIG     1      17.440  37.277  24.616  1.00  0.00    -0.053 A 
HETATM    3  C   LIG     1      17.518  38.259  23.615  1.00  0.00     0.043 A 
HETATM    4  C   LIG     1      17.387  37.918  22.264  1.00  0.00     0.066 A 
HETATM    5  C   LIG     1      17.176  36.587  21.904  1.00  0.00     0.037 A 
HETATM    6  C   LIG     1      17.095  35.597  22.885  1.00  0.00     0.010 A 
HETATM    7  C   LIG     1      17.225  35.924  24.246  1.00  0.00    -0.056 A 
HETATM    8  C   LIG     1      17.131  34.825  25.271  1.00  0.00     0.049 C 
ENDROOT
BRANCH   4   9
HETATM    9  O   LIG     1      17.465  38.894  21.273  1.00  0.00    -0.361 OA
HETATM   10  H   LIG     1      17.645  39.865  21.498  1.00  0.00     0.217 HD
ENDBRANCH   4   9
TORSDOF 1
ENDMDL
MODEL 14
REMARK VINA RESULT:      -5.5      8.661      9.906
REMARK  1 active torsions:
REMARK  status: ('A' for Active; 'I' for Inactive)
REMARK    1  A    between atoms: C_4  and  O_5 
ROOT
HETATM    1  C   LIG     1      13.573  29.225  14.297  1.00  0.00     0.049 C 
HETATM    2  C   LIG     1      14.447  30.423  14.572  1.00  0.00    -0.053 A 
HETATM    3  C   LIG     1      15.372  30.796  13.583  1.00  0.00     0.043 A 
HETATM    4  C   LIG     1      16.216  31.897  13.769  1.00  0.00     0.066 A 
HETATM    5  C   LIG     1      16.142  32.634  14.951  1.00  0.00     0.037 A 
HETATM    6  C   LIG     1      15.228  32.278  15.945  1.00  0.00     0.010 A 
HETATM    7  C   LIG     1      14.373  31.175  15.773  1.00  0.00    -0.056 A 
HETATM    8  C   LIG     1      13.404  30.826  16.871  1.00  0.00     0.049 C 
ENDROOT
BRANCH   4   9
HETATM    9  O   LIG     1      17.132  32.265  12.787  1.00  0.00    -0.361 OA
HETATM   10  H   LIG     1      17.708  31.578  12.314  1.00  0.00     0.217 HD
ENDBRANCH   4   9
TORSDOF 1
ENDMDL
MODEL 15
REMARK VINA RESULT:      -5.5      8.651      9.947
REMARK  1 active torsions:
REMARK  status: ('A' for Active; 'I' for Inactive)
REMARK    1  A    between atoms: C_4  and  O_5 
ROOT
HETATM    1  C   LIG     1      16.841  32.553  14.999  1.00  0.00     0.049 C 
HETATM    2  C   LIG     1      15.551  31.833  15.299  1.00  0.00    -0.053 A 
HETATM    3  C   LIG     1      15.176  30.783  14.445  1.00  0.00     0.043 A 
HETATM    4  C   LIG     1      13.991  30.070  14.662  1.00  0.00     0.066 A 
HETATM    5  C   LIG     1      13.169  30.404  15.738  1.00  0.00     0.037 A 
HETATM    6  C   LIG     1      13.525  31.445  16.598  1.00  0.00     0.010 A 
HETATM    7  C   LIG     1      14.712  32.170  16.394  1.00  0.00    -0.056 A 
HETATM    8  C   LIG     1      15.058  33.285  17.345  1.00  0.00     0.049 C 
ENDROOT
BRANCH   4   9
HETATM    9  O   LIG     1      13.622  29.029  13.813  1.00  0.00    -0.361 OA
HETATM   10  H   LIG     1      12.873  29.135  13.138  1.00  0.00     0.217 HD
ENDBRANCH   4   9
TORSDOF 1
ENDMDL
MODEL 16
REMARK VINA RESULT:      -5.5      8.271      9.278
REMARK  1 active torsions:
REMARK  status: ('A' for Active; 'I' for Inactive)
REMARK    1  A    between atoms: C_4  and  O_5 
ROOT
HETATM    1  C   LIG     1      14.995  32.971  17.177  1.00  0.00     0.049 C 
HETATM    2  C   LIG     1      15.089  32.163  15.908  1.00  0.00    -0.053 A 
HETATM    3  C   LIG     1      16.047  32.551  14.957  1.00  0.00     0.043 A 
HETATM    4  C   LIG     1      16.191  31.848  13.755  1.00  0.00     0.066 A 
HETATM    5  C   LIG     1      15.374  30.748  13.495  1.00  0.00     0.037 A 
HETATM    6  C   LIG     1      14.415  30.347  14.427  1.00  0.00     0.010 A 
HETATM    7  C   LIG     1      14.259  31.043  15.639  1.00  0.00    -0.056 A 
HETATM    8  C   LIG     1      13.213  30.577  16.617  1.00  0.00     0.049 C 
ENDROOT
BRANCH   4   9
HETATM    9  O   LIG     1      17.143  32.235  12.815  1.00  0.00    -0.361 OA
HETATM   10  H   LIG     1      17.825  31.581  12.450  1.00  0.00     0.217 HD
ENDBRANCH   4   9
TORSDOF 1
ENDMDL
MODEL 17
REMARK VINA RESULT:      -5.4      8.273      9.396
REMARK  1 active torsions:
REMARK  status: ('A' for Active; 'I' for Inactive)
REMARK    1  A    between atoms: C_4  and  O_5 
ROOT
HETATM    1  C   LIG     1      13.108  30.699  16.767  1.00  0.00     0.049 C 
HETATM    2  C   LIG     1      14.193  31.152  15.822  1.00  0.00    -0.053 A 
HETATM    3  C   LIG     1      14.914  32.308  16.163  1.00  0.00     0.043 A 
HETATM    4  C   LIG     1      15.935  32.787  15.334  1.00  0.00     0.066 A 
HETATM    5  C   LIG     1      16.242  32.111  14.153  1.00  0.00     0.037 A 
HETATM    6  C   LIG     1      15.536  30.960  13.797  1.00  0.00     0.010 A 
HETATM    7  C   LIG     1      14.508  30.466  14.620  1.00  0.00    -0.056 A 
HETATM    8  C   LIG     1      13.772  29.222  14.198  1.00  0.00     0.049 C 
ENDROOT
BRANCH   4   9
HETATM    9  O   LIG     1      16.648  33.934  15.675  1.00  0.00    -0.361 OA
HETATM   10  H   LIG     1      17.397  34.286  15.090  1.00  0.00     0.217 HD
ENDBRANCH   4   9
TORSDOF 1
ENDMDL
MODEL 18
REMARK VINA RESULT:      -5.0      8.835     10.103
REMARK  1 active torsions:
REMARK  status: ('A' for Active; 'I' for Inactive)
REMARK    1  A    between atoms: C_4  and  O_5 
ROOT
HETATM    1  C   LIG     1      16.023  33.305  16.031  1.00  0.00     0.049 C 
HETATM    2  C   LIG     1      15.227  32.117  15.552  1.00  0.00    -0.053 A 
HETATM    3  C   LIG     1      14.197  31.645  16.382  1.00  0.00     0.043 A 
HETATM    4  C   LIG     1      13.417  30.547  16.003  1.00  0.00     0.066 A 
HETATM    5  C   LIG     1      13.664  29.909  14.788  1.00  0.00     0.037 A 
HETATM    6  C   LIG     1      14.684  30.364  13.949  1.00  0.00     0.010 A 
HETATM    7  C   LIG     1      15.476  31.467  14.315  1.00  0.00    -0.056 A 
HETATM    8  C   LIG     1      16.565  31.923  13.382  1.00  0.00     0.049 C 
ENDROOT
BRANCH   4   9
HETATM    9  O   LIG     1      12.396  30.081  16.828  1.00  0.00    -0.361 OA
HETATM   10  H   LIG     1      12.096  30.600  17.645  1.00  0.00     0.217 HD
ENDBRANCH   4   9
TORSDOF 1
ENDMDL
MODEL 19
REMARK VINA RESULT:      -4.3     10.374     11.693
REMARK  1 active torsions:
REMARK  status: ('A' for Active; 'I' for Inactive)
REMARK    1  A    between atoms: C_4  and  O_5 
ROOT
HETATM    1  C   LIG     1      15.608  27.712  13.084  1.00  0.00     0.049 C 
HETATM    2  C   LIG     1      14.846  28.756  13.860  1.00  0.00    -0.053 A 
HETATM    3  C   LIG     1      15.556  29.880  14.313  1.00  0.00     0.043 A 
HETATM    4  C   LIG     1      14.913  30.889  15.040  1.00  0.00     0.066 A 
HETATM    5  C   LIG     1      13.552  30.780  15.320  1.00  0.00     0.037 A 
HETATM    6  C   LIG     1      12.829  29.670  14.878  1.00  0.00     0.010 A 
HETATM    7  C   LIG     1      13.460  28.648  14.146  1.00  0.00    -0.056 A 
HETATM    8  C   LIG     1      12.643  27.469  13.689  1.00  0.00     0.049 C 
ENDROOT
BRANCH   4   9
HETATM    9  O   LIG     1      15.620  32.002  15.488  1.00  0.00    -0.361 OA
HETATM   10  H   LIG     1      16.603  32.127  15.277  1.00  0.00     0.217 HD
ENDBRANCH   4   9
TORSDOF 1
ENDMDL
