REMARK  1 active torsions:
REMARK  status: ('A' for Active; 'I' for Inactive)
REMARK    1  A    between atoms: C_4  and  N_5 
ROOT
HETATM    1 CL   LIG     1       2.321  -2.382  -0.506  1.00  0.00    -0.082 Cl
HETATM    2  C   LIG     1       1.279  -0.991  -0.239  1.00  0.00     0.058 A 
HETATM    3  C   LIG     1      -0.103  -1.188  -0.135  1.00  0.00     0.054 A 
HETATM    4  C   LIG     1      -0.962  -0.100   0.077  1.00  0.00     0.027 A 
HETATM    5  C   LIG     1      -0.427   1.191   0.185  1.00  0.00     0.031 A 
HETATM    6  C   LIG     1       0.952   1.392   0.081  1.00  0.00     0.028 A 
HETATM    7  C   LIG     1       1.810   0.306  -0.131  1.00  0.00     0.055 A 
HETATM    8 CL   LIG     1       3.539   0.598  -0.257  1.00  0.00    -0.083 Cl
ENDROOT
BRANCH   4   9
HETATM    9  N   LIG     1      -2.373  -0.306   0.184  1.00  0.00    -0.399 N 
HETATM   10  H   LIG     1      -2.781  -1.264   0.105  1.00  0.00     0.156 HD
HETATM   11  H   LIG     1      -3.020   0.498   0.342  1.00  0.00     0.156 HD
ENDBRANCH   4   9
TORSDOF 1
