MODEL 1
REMARK VINA RESULT:      -6.1      0.000      0.000
REMARK  1 active torsions:
REMARK  status: ('A' for Active; 'I' for Inactive)
REMARK    1  A    between atoms: C_4  and  N_5 
ROOT
HETATM    1 CL   LIG     1      17.028  39.271  22.907  1.00  0.00    -0.082 Cl
HETATM    2  C   LIG     1      17.860  38.494  21.568  1.00  0.00     0.058 A 
HETATM    3  C   LIG     1      18.793  39.232  20.829  1.00  0.00     0.054 A 
HETATM    4  C   LIG     1      19.474  38.643  19.754  1.00  0.00     0.027 A 
HETATM    5  C   LIG     1      19.215  37.306  19.422  1.00  0.00     0.031 A 
HETATM    6  C   LIG     1      18.284  36.566  20.156  1.00  0.00     0.028 A 
HETATM    7  C   LIG     1      17.603  37.154  21.230  1.00  0.00     0.055 A 
HETATM    8 CL   LIG     1      16.439  36.193  22.130  1.00  0.00    -0.083 Cl
ENDROOT
BRANCH   4   9
HETATM    9  N   LIG     1      20.427  39.399  19.003  1.00  0.00    -0.399 N 
HETATM   10  H   LIG     1      20.203  40.365  18.673  1.00  0.00     0.156 HD
HETATM   11  H   LIG     1      21.363  38.999  18.770  1.00  0.00     0.156 HD
ENDBRANCH   4   9
TORSDOF 1
ENDMDL
MODEL 2
REMARK VINA RESULT:      -5.8      3.073      3.620
REMARK  1 active torsions:
REMARK  status: ('A' for Active; 'I' for Inactive)
REMARK    1  A    between atoms: C_4  and  N_5 
ROOT
HETATM    1 CL   LIG     1      19.190  39.624  20.507  1.00  0.00    -0.082 Cl
HETATM    2  C   LIG     1      18.115  38.361  21.091  1.00  0.00     0.058 A 
HETATM    3  C   LIG     1      17.138  38.685  22.039  1.00  0.00     0.054 A 
HETATM    4  C   LIG     1      16.265  37.701  22.526  1.00  0.00     0.027 A 
HETATM    5  C   LIG     1      16.378  36.385  22.056  1.00  0.00     0.031 A 
HETATM    6  C   LIG     1      17.353  36.057  21.110  1.00  0.00     0.028 A 
HETATM    7  C   LIG     1      18.224  37.039  20.624  1.00  0.00     0.055 A 
HETATM    8 CL   LIG     1      19.439  36.589  19.435  1.00  0.00    -0.083 Cl
ENDROOT
BRANCH   4   9
HETATM    9  N   LIG     1      15.267  38.037  23.493  1.00  0.00    -0.399 N 
HETATM   10  H   LIG     1      14.921  39.018  23.585  1.00  0.00     0.156 HD
HETATM   11  H   LIG     1      14.868  37.308  24.125  1.00  0.00     0.156 HD
ENDBRANCH   4   9
TORSDOF 1
ENDMDL
MODEL 3
REMARK VINA RESULT:      -5.8      3.153      4.198
REMARK  1 active torsions:
REMARK  status: ('A' for Active; 'I' for Inactive)
REMARK    1  A    between atoms: C_4  and  N_5 
ROOT
HETATM    1 CL   LIG     1      17.222  34.779  25.479  1.00  0.00    -0.082 Cl
HETATM    2  C   LIG     1      17.155  35.839  24.077  1.00  0.00     0.058 A 
HETATM    3  C   LIG     1      17.032  35.273  22.803  1.00  0.00     0.054 A 
HETATM    4  C   LIG     1      16.977  36.090  21.665  1.00  0.00     0.027 A 
HETATM    5  C   LIG     1      17.045  37.482  21.810  1.00  0.00     0.031 A 
HETATM    6  C   LIG     1      17.168  38.052  23.081  1.00  0.00     0.028 A 
HETATM    7  C   LIG     1      17.223  37.236  24.218  1.00  0.00     0.055 A 
HETATM    8 CL   LIG     1      17.378  37.988  25.799  1.00  0.00    -0.083 Cl
ENDROOT
BRANCH   4   9
HETATM    9  N   LIG     1      16.851  35.507  20.365  1.00  0.00    -0.399 N 
HETATM   10  H   LIG     1      17.580  35.666  19.635  1.00  0.00     0.156 HD
HETATM   11  H   LIG     1      16.027  34.914  20.123  1.00  0.00     0.156 HD
ENDBRANCH   4   9
TORSDOF 1
ENDMDL
MODEL 4
REMARK VINA RESULT:      -5.6      4.285      5.413
REMARK  1 active torsions:
REMARK  status: ('A' for Active; 'I' for Inactive)
REMARK    1  A    between atoms: C_4  and  N_5 
ROOT
HETATM    1 CL   LIG     1      16.266  35.944  21.777  1.00  0.00    -0.082 Cl
HETATM    2  C   LIG     1      16.888  36.400  23.357  1.00  0.00     0.058 A 
HETATM    3  C   LIG     1      17.234  35.394  24.266  1.00  0.00     0.054 A 
HETATM    4  C   LIG     1      17.733  35.723  25.535  1.00  0.00     0.027 A 
HETATM    5  C   LIG     1      17.884  37.071  25.889  1.00  0.00     0.031 A 
HETATM    6  C   LIG     1      17.539  38.078  24.984  1.00  0.00     0.028 A 
HETATM    7  C   LIG     1      17.041  37.750  23.717  1.00  0.00     0.055 A 
HETATM    8 CL   LIG     1      16.618  39.045  22.606  1.00  0.00    -0.083 Cl
ENDROOT
BRANCH   4   9
HETATM    9  N   LIG     1      18.086  34.691  26.460  1.00  0.00    -0.399 N 
HETATM   10  H   LIG     1      18.558  34.922  27.363  1.00  0.00     0.156 HD
HETATM   11  H   LIG     1      17.879  33.690  26.249  1.00  0.00     0.156 HD
ENDBRANCH   4   9
TORSDOF 1
ENDMDL
MODEL 5
REMARK VINA RESULT:      -5.6      1.009      2.310
REMARK  1 active torsions:
REMARK  status: ('A' for Active; 'I' for Inactive)
REMARK    1  A    between atoms: C_4  and  N_5 
ROOT
HETATM    1 CL   LIG     1      17.098  35.475  20.750  1.00  0.00    -0.082 Cl
HETATM    2  C   LIG     1      17.809  37.078  20.879  1.00  0.00     0.058 A 
HETATM    3  C   LIG     1      18.796  37.459  19.961  1.00  0.00     0.054 A 
HETATM    4  C   LIG     1      19.384  38.729  20.036  1.00  0.00     0.027 A 
HETATM    5  C   LIG     1      18.976  39.620  21.039  1.00  0.00     0.031 A 
HETATM    6  C   LIG     1      17.993  39.244  21.957  1.00  0.00     0.028 A 
HETATM    7  C   LIG     1      17.405  37.975  21.883  1.00  0.00     0.055 A 
HETATM    8 CL   LIG     1      16.171  37.536  23.056  1.00  0.00    -0.083 Cl
ENDROOT
BRANCH   4   9
HETATM    9  N   LIG     1      20.390  39.115  19.096  1.00  0.00    -0.399 N 
HETATM   10  H   LIG     1      21.273  39.572  19.416  1.00  0.00     0.156 HD
HETATM   11  H   LIG     1      20.259  38.947  18.074  1.00  0.00     0.156 HD
ENDBRANCH   4   9
TORSDOF 1
ENDMDL
MODEL 6
REMARK VINA RESULT:      -5.6      2.950      3.877
REMARK  1 active torsions:
REMARK  status: ('A' for Active; 'I' for Inactive)
REMARK    1  A    between atoms: C_4  and  N_5 
ROOT
HETATM    1 CL   LIG     1      16.624  35.167  20.700  1.00  0.00    -0.082 Cl
HETATM    2  C   LIG     1      17.233  36.660  21.400  1.00  0.00     0.058 A 
HETATM    3  C   LIG     1      16.804  37.036  22.678  1.00  0.00     0.054 A 
HETATM    4  C   LIG     1      17.270  38.221  23.265  1.00  0.00     0.027 A 
HETATM    5  C   LIG     1      18.172  39.031  22.561  1.00  0.00     0.031 A 
HETATM    6  C   LIG     1      18.602  38.660  21.285  1.00  0.00     0.028 A 
HETATM    7  C   LIG     1      18.137  37.477  20.698  1.00  0.00     0.055 A 
HETATM    8 CL   LIG     1      18.701  37.044  19.091  1.00  0.00    -0.083 Cl
ENDROOT
BRANCH   4   9
HETATM    9  N   LIG     1      16.830  38.600  24.571  1.00  0.00    -0.399 N 
HETATM   10  H   LIG     1      15.813  38.621  24.808  1.00  0.00     0.156 HD
HETATM   11  H   LIG     1      17.518  38.864  25.311  1.00  0.00     0.156 HD
ENDBRANCH   4   9
TORSDOF 1
ENDMDL
MODEL 7
REMARK VINA RESULT:      -5.5      3.280      4.428
REMARK  1 active torsions:
REMARK  status: ('A' for Active; 'I' for Inactive)
REMARK    1  A    between atoms: C_4  and  N_5 
ROOT
HETATM    1 CL   LIG     1      19.091  36.651  19.718  1.00  0.00    -0.082 Cl
HETATM    2  C   LIG     1      17.703  36.807  20.786  1.00  0.00     0.058 A 
HETATM    3  C   LIG     1      16.681  35.852  20.716  1.00  0.00     0.054 A 
HETATM    4  C   LIG     1      15.560  35.948  21.553  1.00  0.00     0.027 A 
HETATM    5  C   LIG     1      15.468  37.010  22.464  1.00  0.00     0.031 A 
HETATM    6  C   LIG     1      16.485  37.965  22.536  1.00  0.00     0.028 A 
HETATM    7  C   LIG     1      17.604  37.870  21.700  1.00  0.00     0.055 A 
HETATM    8 CL   LIG     1      18.863  39.091  21.820  1.00  0.00    -0.083 Cl
ENDROOT
BRANCH   4   9
HETATM    9  N   LIG     1      14.520  34.970  21.479  1.00  0.00    -0.399 N 
HETATM   10  H   LIG     1      13.552  35.239  21.192  1.00  0.00     0.156 HD
HETATM   11  H   LIG     1      14.709  33.970  21.713  1.00  0.00     0.156 HD
ENDBRANCH   4   9
TORSDOF 1
ENDMDL
MODEL 8
REMARK VINA RESULT:      -5.3      3.413      4.132
REMARK  1 active torsions:
REMARK  status: ('A' for Active; 'I' for Inactive)
REMARK    1  A    between atoms: C_4  and  N_5 
ROOT
HETATM    1 CL   LIG     1      18.038  39.174  21.176  1.00  0.00    -0.082 Cl
HETATM    2  C   LIG     1      17.643  37.939  22.364  1.00  0.00     0.058 A 
HETATM    3  C   LIG     1      17.702  38.262  23.724  1.00  0.00     0.054 A 
HETATM    4  C   LIG     1      17.395  37.300  24.697  1.00  0.00     0.027 A 
HETATM    5  C   LIG     1      17.026  36.008  24.298  1.00  0.00     0.031 A 
HETATM    6  C   LIG     1      16.966  35.681  22.941  1.00  0.00     0.028 A 
HETATM    7  C   LIG     1      17.274  36.641  21.969  1.00  0.00     0.055 A 
HETATM    8 CL   LIG     1      17.188  36.193  20.271  1.00  0.00    -0.083 Cl
ENDROOT
BRANCH   4   9
HETATM    9  N   LIG     1      17.455  37.635  26.086  1.00  0.00    -0.399 N 
HETATM   10  H   LIG     1      16.597  37.611  26.680  1.00  0.00     0.156 HD
HETATM   11  H   LIG     1      18.359  37.910  26.531  1.00  0.00     0.156 HD
ENDBRANCH   4   9
TORSDOF 1
ENDMDL
MODEL 9
REMARK VINA RESULT:      -5.3      8.271      9.252
REMARK  1 active torsions:
REMARK  status: ('A' for Active; 'I' for Inactive)
REMARK    1  A    between atoms: C_4  and  N_5 
ROOT
HETATM    1 CL   LIG     1      15.951  31.614  13.430  1.00  0.00    -0.082 Cl
HETATM    2  C   LIG     1      15.176  31.696  15.006  1.00  0.00     0.058 A 
HETATM    3  C   LIG     1      15.541  32.719  15.889  1.00  0.00     0.054 A 
HETATM    4  C   LIG     1      14.943  32.813  17.154  1.00  0.00     0.027 A 
HETATM    5  C   LIG     1      13.974  31.872  17.531  1.00  0.00     0.031 A 
HETATM    6  C   LIG     1      13.608  30.849  16.653  1.00  0.00     0.028 A 
HETATM    7  C   LIG     1      14.205  30.755  15.390  1.00  0.00     0.055 A 
HETATM    8 CL   LIG     1      13.719  29.454  14.312  1.00  0.00    -0.083 Cl
ENDROOT
BRANCH   4   9
HETATM    9  N   LIG     1      15.317  33.860  18.053  1.00  0.00    -0.399 N 
HETATM   10  H   LIG     1      14.595  34.481  18.481  1.00  0.00     0.156 HD
HETATM   11  H   LIG     1      16.320  34.023  18.296  1.00  0.00     0.156 HD
ENDBRANCH   4   9
TORSDOF 1
ENDMDL
MODEL 10
REMARK VINA RESULT:      -5.2      8.640      9.694
REMARK  1 active torsions:
REMARK  status: ('A' for Active; 'I' for Inactive)
REMARK    1  A    between atoms: C_4  and  N_5 
ROOT
HETATM    1 CL   LIG     1      13.218  29.516  14.482  1.00  0.00    -0.082 Cl
HETATM    2  C   LIG     1      14.101  30.705  15.430  1.00  0.00     0.058 A 
HETATM    3  C   LIG     1      13.754  30.897  16.772  1.00  0.00     0.054 A 
HETATM    4  C   LIG     1      14.438  31.838  17.555  1.00  0.00     0.027 A 
HETATM    5  C   LIG     1      15.475  32.589  16.984  1.00  0.00     0.031 A 
HETATM    6  C   LIG     1      15.823  32.401  15.644  1.00  0.00     0.028 A 
HETATM    7  C   LIG     1      15.141  31.461  14.862  1.00  0.00     0.055 A 
HETATM    8 CL   LIG     1      15.607  31.253  13.179  1.00  0.00    -0.083 Cl
ENDROOT
BRANCH   4   9
HETATM    9  N   LIG     1      14.082  32.030  18.927  1.00  0.00    -0.399 N 
HETATM   10  H   LIG     1      13.962  32.990  19.319  1.00  0.00     0.156 HD
HETATM   11  H   LIG     1      13.936  31.213  19.560  1.00  0.00     0.156 HD
ENDBRANCH   4   9
TORSDOF 1
ENDMDL
MODEL 11
REMARK VINA RESULT:      -5.1      3.170      3.852
REMARK  1 active torsions:
REMARK  status: ('A' for Active; 'I' for Inactive)
REMARK    1  A    between atoms: C_4  and  N_5 
ROOT
HETATM    1 CL   LIG     1      17.141  39.452  23.003  1.00  0.00    -0.082 Cl
HETATM    2  C   LIG     1      17.061  37.696  22.960  1.00  0.00     0.058 A 
HETATM    3  C   LIG     1      16.852  37.056  21.733  1.00  0.00     0.054 A 
HETATM    4  C   LIG     1      16.782  35.657  21.663  1.00  0.00     0.027 A 
HETATM    5  C   LIG     1      16.923  34.900  22.835  1.00  0.00     0.031 A 
HETATM    6  C   LIG     1      17.131  35.535  24.062  1.00  0.00     0.028 A 
HETATM    7  C   LIG     1      17.200  36.932  24.131  1.00  0.00     0.055 A 
HETATM    8 CL   LIG     1      17.463  37.695  25.693  1.00  0.00    -0.083 Cl
ENDROOT
BRANCH   4   9
HETATM    9  N   LIG     1      16.570  35.007  20.407  1.00  0.00    -0.399 N 
HETATM   10  H   LIG     1      17.312  35.008  19.673  1.00  0.00     0.156 HD
HETATM   11  H   LIG     1      15.668  34.521  20.203  1.00  0.00     0.156 HD
ENDBRANCH   4   9
TORSDOF 1
ENDMDL
MODEL 12
REMARK VINA RESULT:      -5.1      8.054      9.089
REMARK  1 active torsions:
REMARK  status: ('A' for Active; 'I' for Inactive)
REMARK    1  A    between atoms: C_4  and  N_5 
ROOT
HETATM    1 CL   LIG     1      15.292  34.339  17.527  1.00  0.00    -0.082 Cl
HETATM    2  C   LIG     1      14.910  32.881  16.622  1.00  0.00     0.058 A 
HETATM    3  C   LIG     1      13.796  32.121  16.998  1.00  0.00     0.054 A 
HETATM    4  C   LIG     1      13.464  30.952  16.298  1.00  0.00     0.027 A 
HETATM    5  C   LIG     1      14.257  30.548  15.215  1.00  0.00     0.031 A 
HETATM    6  C   LIG     1      15.370  31.304  14.837  1.00  0.00     0.028 A 
HETATM    7  C   LIG     1      15.701  32.471  15.536  1.00  0.00     0.055 A 
HETATM    8 CL   LIG     1      17.109  33.395  15.031  1.00  0.00    -0.083 Cl
ENDROOT
BRANCH   4   9
HETATM    9  N   LIG     1      12.325  30.179  16.685  1.00  0.00    -0.399 N 
HETATM   10  H   LIG     1      11.868  29.526  16.010  1.00  0.00     0.156 HD
HETATM   11  H   LIG     1      11.930  30.254  17.648  1.00  0.00     0.156 HD
ENDBRANCH   4   9
TORSDOF 1
ENDMDL
MODEL 13
REMARK VINA RESULT:      -5.1      8.596      9.727
REMARK  1 active torsions:
REMARK  status: ('A' for Active; 'I' for Inactive)
REMARK    1  A    between atoms: C_4  and  N_5 
ROOT
HETATM    1 CL   LIG     1      17.097  32.928  14.915  1.00  0.00    -0.082 Cl
HETATM    2  C   LIG     1      15.634  32.020  15.273  1.00  0.00     0.058 A 
HETATM    3  C   LIG     1      15.313  30.911  14.481  1.00  0.00     0.054 A 
HETATM    4  C   LIG     1      14.153  30.166  14.739  1.00  0.00     0.027 A 
HETATM    5  C   LIG     1      13.315  30.538  15.799  1.00  0.00     0.031 A 
HETATM    6  C   LIG     1      13.632  31.645  16.591  1.00  0.00     0.028 A 
HETATM    7  C   LIG     1      14.789  32.390  16.334  1.00  0.00     0.055 A 
HETATM    8 CL   LIG     1      15.155  33.776  17.351  1.00  0.00    -0.083 Cl
ENDROOT
BRANCH   4   9
HETATM    9  N   LIG     1      13.829  29.033  13.929  1.00  0.00    -0.399 N 
HETATM   10  H   LIG     1      12.856  28.657  13.901  1.00  0.00     0.156 HD
HETATM   11  H   LIG     1      14.561  28.562  13.352  1.00  0.00     0.156 HD
ENDBRANCH   4   9
TORSDOF 1
ENDMDL
MODEL 14
REMARK VINA RESULT:      -4.9      3.184      3.897
REMARK  1 active torsions:
REMARK  status: ('A' for Active; 'I' for Inactive)
REMARK    1  A    between atoms: C_4  and  N_5 
ROOT
HETATM    1 CL   LIG     1      17.040  38.994  23.166  1.00  0.00    -0.082 Cl
HETATM    2  C   LIG     1      16.841  37.630  22.074  1.00  0.00     0.058 A 
HETATM    3  C   LIG     1      15.749  36.773  22.251  1.00  0.00     0.054 A 
HETATM    4  C   LIG     1      15.562  35.675  21.399  1.00  0.00     0.027 A 
HETATM    5  C   LIG     1      16.477  35.441  20.364  1.00  0.00     0.031 A 
HETATM    6  C   LIG     1      17.569  36.294  20.184  1.00  0.00     0.028 A 
HETATM    7  C   LIG     1      17.757  37.390  21.035  1.00  0.00     0.055 A 
HETATM    8 CL   LIG     1      19.142  38.441  20.778  1.00  0.00    -0.083 Cl
ENDROOT
BRANCH   4   9
HETATM    9  N   LIG     1      14.444  34.802  21.583  1.00  0.00    -0.399 N 
HETATM   10  H   LIG     1      14.572  33.848  21.987  1.00  0.00     0.156 HD
HETATM   11  H   LIG     1      13.481  35.104  21.315  1.00  0.00     0.156 HD
ENDBRANCH   4   9
TORSDOF 1
ENDMDL
MODEL 15
REMARK VINA RESULT:      -4.9      3.259      3.787
REMARK  1 active torsions:
REMARK  status: ('A' for Active; 'I' for Inactive)
REMARK    1  A    between atoms: C_4  and  N_5 
ROOT
HETATM    1 CL   LIG     1      18.357  37.376  26.581  1.00  0.00    -0.082 Cl
HETATM    2  C   LIG     1      17.795  37.101  24.938  1.00  0.00     0.058 A 
HETATM    3  C   LIG     1      17.857  38.151  24.014  1.00  0.00     0.054 A 
HETATM    4  C   LIG     1      17.415  37.965  22.696  1.00  0.00     0.027 A 
HETATM    5  C   LIG     1      16.910  36.717  22.307  1.00  0.00     0.031 A 
HETATM    6  C   LIG     1      16.846  35.667  23.226  1.00  0.00     0.028 A 
HETATM    7  C   LIG     1      17.286  35.852  24.542  1.00  0.00     0.055 A 
HETATM    8 CL   LIG     1      17.189  34.507  25.670  1.00  0.00    -0.083 Cl
ENDROOT
BRANCH   4   9
HETATM    9  N   LIG     1      17.482  39.040  21.755  1.00  0.00    -0.399 N 
HETATM   10  H   LIG     1      17.539  38.851  20.730  1.00  0.00     0.156 HD
HETATM   11  H   LIG     1      17.475  40.033  22.078  1.00  0.00     0.156 HD
ENDBRANCH   4   9
TORSDOF 1
ENDMDL
MODEL 16
REMARK VINA RESULT:      -4.9      2.935      3.937
REMARK  1 active torsions:
REMARK  status: ('A' for Active; 'I' for Inactive)
REMARK    1  A    between atoms: C_4  and  N_5 
ROOT
HETATM    1 CL   LIG     1      16.277  34.752  22.304  1.00  0.00    -0.082 Cl
HETATM    2  C   LIG     1      16.984  36.174  23.058  1.00  0.00     0.058 A 
HETATM    3  C   LIG     1      17.232  37.307  22.273  1.00  0.00     0.054 A 
HETATM    4  C   LIG     1      17.796  38.457  22.843  1.00  0.00     0.027 A 
HETATM    5  C   LIG     1      18.111  38.467  24.209  1.00  0.00     0.031 A 
HETATM    6  C   LIG     1      17.866  37.338  24.996  1.00  0.00     0.028 A 
HETATM    7  C   LIG     1      17.303  36.189  24.427  1.00  0.00     0.055 A 
HETATM    8 CL   LIG     1      17.009  34.789  25.448  1.00  0.00    -0.083 Cl
ENDROOT
BRANCH   4   9
HETATM    9  N   LIG     1      18.046  39.612  22.038  1.00  0.00    -0.399 N 
HETATM   10  H   LIG     1      17.298  40.012  21.430  1.00  0.00     0.156 HD
HETATM   11  H   LIG     1      18.982  40.075  22.044  1.00  0.00     0.156 HD
ENDBRANCH   4   9
TORSDOF 1
ENDMDL
MODEL 17
REMARK VINA RESULT:      -4.7      8.127      9.331
REMARK  1 active torsions:
REMARK  status: ('A' for Active; 'I' for Inactive)
REMARK    1  A    between atoms: C_4  and  N_5 
ROOT
HETATM    1 CL   LIG     1      13.769  29.626  14.429  1.00  0.00    -0.082 Cl
HETATM    2  C   LIG     1      14.846  30.990  14.697  1.00  0.00     0.058 A 
HETATM    3  C   LIG     1      15.670  31.420  13.650  1.00  0.00     0.054 A 
HETATM    4  C   LIG     1      16.541  32.504  13.831  1.00  0.00     0.027 A 
HETATM    5  C   LIG     1      16.582  33.157  15.071  1.00  0.00     0.031 A 
HETATM    6  C   LIG     1      15.762  32.730  16.118  1.00  0.00     0.028 A 
HETATM    7  C   LIG     1      14.893  31.647  15.938  1.00  0.00     0.055 A 
HETATM    8 CL   LIG     1      13.877  31.138  17.280  1.00  0.00    -0.083 Cl
ENDROOT
BRANCH   4   9
HETATM    9  N   LIG     1      17.379  32.942  12.758  1.00  0.00    -0.399 N 
HETATM   10  H   LIG     1      17.161  32.685  11.770  1.00  0.00     0.156 HD
HETATM   11  H   LIG     1      18.225  33.525  12.945  1.00  0.00     0.156 HD
ENDBRANCH   4   9
TORSDOF 1
ENDMDL
MODEL 18
REMARK VINA RESULT:      -4.6      7.938      9.049
REMARK  1 active torsions:
REMARK  status: ('A' for Active; 'I' for Inactive)
REMARK    1  A    between atoms: C_4  and  N_5 
ROOT
HETATM    1 CL   LIG     1      14.727  29.604  13.963  1.00  0.00    -0.082 Cl
HETATM    2  C   LIG     1      14.984  31.034  14.954  1.00  0.00     0.058 A 
HETATM    3  C   LIG     1      16.097  31.845  14.700  1.00  0.00     0.054 A 
HETATM    4  C   LIG     1      16.332  32.992  15.472  1.00  0.00     0.027 A 
HETATM    5  C   LIG     1      15.442  33.323  16.504  1.00  0.00     0.031 A 
HETATM    6  C   LIG     1      14.331  32.516  16.761  1.00  0.00     0.028 A 
HETATM    7  C   LIG     1      14.096  31.371  15.990  1.00  0.00     0.055 A 
HETATM    8 CL   LIG     1      12.688  30.380  16.343  1.00  0.00    -0.083 Cl
ENDROOT
BRANCH   4   9
HETATM    9  N   LIG     1      17.469  33.817  15.209  1.00  0.00    -0.399 N 
HETATM   10  H   LIG     1      17.480  34.821  15.499  1.00  0.00     0.156 HD
HETATM   11  H   LIG     1      18.308  33.432  14.721  1.00  0.00     0.156 HD
ENDBRANCH   4   9
TORSDOF 1
ENDMDL
MODEL 19
REMARK VINA RESULT:      -4.4      9.696     10.710
REMARK  1 active torsions:
REMARK  status: ('A' for Active; 'I' for Inactive)
REMARK    1  A    between atoms: C_4  and  N_5 
ROOT
HETATM    1 CL   LIG     1      22.707  35.139  13.251  1.00  0.00    -0.082 Cl
HETATM    2  C   LIG     1      21.353  34.858  12.165  1.00  0.00     0.058 A 
HETATM    3  C   LIG     1      20.278  34.078  12.608  1.00  0.00     0.054 A 
HETATM    4  C   LIG     1      19.183  33.834  11.767  1.00  0.00     0.027 A 
HETATM    5  C   LIG     1      19.170  34.378  10.475  1.00  0.00     0.031 A 
HETATM    6  C   LIG     1      20.241  35.157  10.029  1.00  0.00     0.028 A 
HETATM    7  C   LIG     1      21.335  35.401  10.869  1.00  0.00     0.055 A 
HETATM    8 CL   LIG     1      22.664  36.385  10.272  1.00  0.00    -0.083 Cl
ENDROOT
BRANCH   4   9
HETATM    9  N   LIG     1      18.087  33.038  12.224  1.00  0.00    -0.399 N 
HETATM   10  H   LIG     1      17.153  33.468  12.407  1.00  0.00     0.156 HD
HETATM   11  H   LIG     1      18.201  32.012  12.383  1.00  0.00     0.156 HD
ENDBRANCH   4   9
TORSDOF 1
ENDMDL
MODEL 20
REMARK VINA RESULT:      -4.2      9.873     10.802
REMARK  1 active torsions:
REMARK  status: ('A' for Active; 'I' for Inactive)
REMARK    1  A    between atoms: C_4  and  N_5 
ROOT
HETATM    1 CL   LIG     1      23.092  36.902  10.385  1.00  0.00    -0.082 Cl
HETATM    2  C   LIG     1      22.040  35.669  11.067  1.00  0.00     0.058 A 
HETATM    3  C   LIG     1      20.991  35.165  10.289  1.00  0.00     0.054 A 
HETATM    4  C   LIG     1      20.133  34.182  10.803  1.00  0.00     0.027 A 
HETATM    5  C   LIG     1      20.333  33.704  12.106  1.00  0.00     0.031 A 
HETATM    6  C   LIG     1      21.379  34.205  12.886  1.00  0.00     0.028 A 
HETATM    7  C   LIG     1      22.235  35.187  12.373  1.00  0.00     0.055 A 
HETATM    8 CL   LIG     1      23.539  35.793  13.384  1.00  0.00    -0.083 Cl
ENDROOT
BRANCH   4   9
HETATM    9  N   LIG     1      19.064  33.669  10.005  1.00  0.00    -0.399 N 
HETATM   10  H   LIG     1      18.095  33.600  10.389  1.00  0.00     0.156 HD
HETATM   11  H   LIG     1      19.233  33.354   9.024  1.00  0.00     0.156 HD
ENDBRANCH   4   9
TORSDOF 1
ENDMDL
