REMARK  1 active torsions:
REMARK  status: ('A' for Active; 'I' for Inactive)
REMARK    1  A    between atoms: O_1  and  C_2 
ROOT
HETATM    1  C   LIG     1       0.683   1.003  -0.176  1.00  0.00     0.072 A 
HETATM    2  C   LIG     1      -0.719   1.046  -0.224  1.00  0.00     0.043 A 
HETATM    3  C   LIG     1      -1.468  -0.139  -0.184  1.00  0.00    -0.059 A 
HETATM    4  C   LIG     1      -2.967  -0.085  -0.194  1.00  0.00     0.048 C 
HETATM    5  C   LIG     1      -0.807  -1.369  -0.061  1.00  0.00     0.007 A 
HETATM    6  C   LIG     1       0.589  -1.418  -0.014  1.00  0.00     0.010 A 
HETATM    7  C   LIG     1       1.344  -0.236  -0.082  1.00  0.00    -0.029 A 
HETATM    8  C   LIG     1       2.844  -0.292  -0.015  1.00  0.00     0.051 C 
ENDROOT
BRANCH   1   9
HETATM    9  O   LIG     1       1.419   2.186  -0.220  1.00  0.00    -0.360 OA
HETATM   10  H   LIG     1       0.968   3.091  -0.288  1.00  0.00     0.217 HD
ENDBRANCH   1   9
TORSDOF 1
