MODEL 1
REMARK VINA RESULT:      -6.5      0.000      0.000
REMARK  1 active torsions:
REMARK  status: ('A' for Active; 'I' for Inactive)
REMARK    1  A    between atoms: O_1  and  C_2 
ROOT
HETATM    1  C   LIG     1      17.248  37.446  24.882  1.00  0.00     0.072 A 
HETATM    2  C   LIG     1      16.735  37.424  23.576  1.00  0.00     0.043 A 
HETATM    3  C   LIG     1      16.646  36.217  22.868  1.00  0.00    -0.059 A 
HETATM    4  C   LIG     1      16.058  36.194  21.488  1.00  0.00     0.048 C 
HETATM    5  C   LIG     1      17.043  35.024  23.486  1.00  0.00     0.007 A 
HETATM    6  C   LIG     1      17.556  35.039  24.786  1.00  0.00     0.010 A 
HETATM    7  C   LIG     1      17.673  36.249  25.489  1.00  0.00    -0.029 A 
HETATM    8  C   LIG     1      18.211  36.260  26.892  1.00  0.00     0.051 C 
ENDROOT
BRANCH   1   9
HETATM    9  O   LIG     1      17.336  38.651  25.577  1.00  0.00    -0.360 OA
HETATM   10  H   LIG     1      18.105  38.847  26.208  1.00  0.00     0.217 HD
ENDBRANCH   1   9
TORSDOF 1
ENDMDL
MODEL 2
REMARK VINA RESULT:      -6.3      0.969      3.076
REMARK  1 active torsions:
REMARK  status: ('A' for Active; 'I' for Inactive)
REMARK    1  A    between atoms: O_1  and  C_2 
ROOT
HETATM    1  C   LIG     1      17.268  37.962  24.970  1.00  0.00     0.072 A 
HETATM    2  C   LIG     1      17.751  37.003  25.873  1.00  0.00     0.043 A 
HETATM    3  C   LIG     1      17.776  35.645  25.521  1.00  0.00    -0.059 A 
HETATM    4  C   LIG     1      18.332  34.629  26.474  1.00  0.00     0.048 C 
HETATM    5  C   LIG     1      17.346  35.255  24.245  1.00  0.00     0.007 A 
HETATM    6  C   LIG     1      16.863  36.206  23.342  1.00  0.00     0.010 A 
HETATM    7  C   LIG     1      16.809  37.563  23.701  1.00  0.00    -0.029 A 
HETATM    8  C   LIG     1      16.304  38.584  22.721  1.00  0.00     0.051 C 
ENDROOT
BRANCH   1   9
HETATM    9  O   LIG     1      17.243  39.309  25.330  1.00  0.00    -0.360 OA
HETATM   10  H   LIG     1      17.516  40.038  24.681  1.00  0.00     0.217 HD
ENDBRANCH   1   9
TORSDOF 1
ENDMDL
MODEL 3
REMARK VINA RESULT:      -6.3      1.811      3.666
REMARK  1 active torsions:
REMARK  status: ('A' for Active; 'I' for Inactive)
REMARK    1  A    between atoms: O_1  and  C_2 
ROOT
HETATM    1  C   LIG     1      16.887  36.513  23.160  1.00  0.00     0.072 A 
HETATM    2  C   LIG     1      17.179  35.503  24.089  1.00  0.00     0.043 A 
HETATM    3  C   LIG     1      17.648  35.829  25.369  1.00  0.00    -0.059 A 
HETATM    4  C   LIG     1      17.920  34.747  26.372  1.00  0.00     0.048 C 
HETATM    5  C   LIG     1      17.793  37.176  25.728  1.00  0.00     0.007 A 
HETATM    6  C   LIG     1      17.505  38.187  24.807  1.00  0.00     0.010 A 
HETATM    7  C   LIG     1      17.061  37.864  23.514  1.00  0.00    -0.029 A 
HETATM    8  C   LIG     1      16.737  38.954  22.532  1.00  0.00     0.051 C 
ENDROOT
BRANCH   1   9
HETATM    9  O   LIG     1      16.424  36.179  21.888  1.00  0.00    -0.360 OA
HETATM   10  H   LIG     1      15.439  36.221  21.652  1.00  0.00     0.217 HD
ENDBRANCH   1   9
TORSDOF 1
ENDMDL
MODEL 4
REMARK VINA RESULT:      -6.3      1.265      1.733
REMARK  1 active torsions:
REMARK  status: ('A' for Active; 'I' for Inactive)
REMARK    1  A    between atoms: O_1  and  C_2 
ROOT
HETATM    1  C   LIG     1      18.067  37.120  25.386  1.00  0.00     0.072 A 
HETATM    2  C   LIG     1      17.930  38.111  24.401  1.00  0.00     0.043 A 
HETATM    3  C   LIG     1      17.347  37.806  23.162  1.00  0.00    -0.059 A 
HETATM    4  C   LIG     1      17.166  38.878  22.129  1.00  0.00     0.048 C 
HETATM    5  C   LIG     1      16.870  36.510  22.925  1.00  0.00     0.007 A 
HETATM    6  C   LIG     1      17.005  35.519  23.901  1.00  0.00     0.010 A 
HETATM    7  C   LIG     1      17.613  35.812  25.133  1.00  0.00    -0.029 A 
HETATM    8  C   LIG     1      17.742  34.748  26.185  1.00  0.00     0.051 C 
ENDROOT
BRANCH   1   9
HETATM    9  O   LIG     1      18.651  37.432  26.613  1.00  0.00    -0.360 OA
HETATM   10  H   LIG     1      19.513  37.962  26.672  1.00  0.00     0.217 HD
ENDBRANCH   1   9
TORSDOF 1
ENDMDL
MODEL 5
REMARK VINA RESULT:      -6.2      3.350      4.638
REMARK  1 active torsions:
REMARK  status: ('A' for Active; 'I' for Inactive)
REMARK    1  A    between atoms: O_1  and  C_2 
ROOT
HETATM    1  C   LIG     1      18.559  38.814  21.159  1.00  0.00     0.072 A 
HETATM    2  C   LIG     1      17.564  38.098  21.842  1.00  0.00     0.043 A 
HETATM    3  C   LIG     1      17.211  36.804  21.432  1.00  0.00    -0.059 A 
HETATM    4  C   LIG     1      16.176  36.028  22.191  1.00  0.00     0.048 C 
HETATM    5  C   LIG     1      17.884  36.215  20.352  1.00  0.00     0.007 A 
HETATM    6  C   LIG     1      18.875  36.924  19.667  1.00  0.00     0.010 A 
HETATM    7  C   LIG     1      19.212  38.230  20.057  1.00  0.00    -0.029 A 
HETATM    8  C   LIG     1      20.289  38.982  19.328  1.00  0.00     0.051 C 
ENDROOT
BRANCH   1   9
HETATM    9  O   LIG     1      18.901  40.100  21.572  1.00  0.00    -0.360 OA
HETATM   10  H   LIG     1      19.747  40.555  21.250  1.00  0.00     0.217 HD
ENDBRANCH   1   9
TORSDOF 1
ENDMDL
MODEL 6
REMARK VINA RESULT:      -6.1      3.702      4.843
REMARK  1 active torsions:
REMARK  status: ('A' for Active; 'I' for Inactive)
REMARK    1  A    between atoms: O_1  and  C_2 
ROOT
HETATM    1  C   LIG     1      17.692  36.686  20.679  1.00  0.00     0.072 A 
HETATM    2  C   LIG     1      18.740  37.133  19.860  1.00  0.00     0.043 A 
HETATM    3  C   LIG     1      19.332  38.384  20.083  1.00  0.00    -0.059 A 
HETATM    4  C   LIG     1      20.480  38.839  19.231  1.00  0.00     0.048 C 
HETATM    5  C   LIG     1      18.892  39.175  21.153  1.00  0.00     0.007 A 
HETATM    6  C   LIG     1      17.847  38.736  21.972  1.00  0.00     0.010 A 
HETATM    7  C   LIG     1      17.233  37.496  21.735  1.00  0.00    -0.029 A 
HETATM    8  C   LIG     1      16.121  37.020  22.627  1.00  0.00     0.051 C 
ENDROOT
BRANCH   1   9
HETATM    9  O   LIG     1      17.107  35.442  20.447  1.00  0.00    -0.360 OA
HETATM   10  H   LIG     1      16.158  35.238  20.738  1.00  0.00     0.217 HD
ENDBRANCH   1   9
TORSDOF 1
ENDMDL
MODEL 7
REMARK VINA RESULT:      -6.1      3.793      5.183
REMARK  1 active torsions:
REMARK  status: ('A' for Active; 'I' for Inactive)
REMARK    1  A    between atoms: O_1  and  C_2 
ROOT
HETATM    1  C   LIG     1      18.540  37.305  20.212  1.00  0.00     0.072 A 
HETATM    2  C   LIG     1      17.509  36.987  21.110  1.00  0.00     0.043 A 
HETATM    3  C   LIG     1      17.125  37.900  22.103  1.00  0.00    -0.059 A 
HETATM    4  C   LIG     1      15.996  37.571  23.033  1.00  0.00     0.048 C 
HETATM    5  C   LIG     1      17.756  39.150  22.172  1.00  0.00     0.007 A 
HETATM    6  C   LIG     1      18.784  39.471  21.281  1.00  0.00     0.010 A 
HETATM    7  C   LIG     1      19.191  38.549  20.303  1.00  0.00    -0.029 A 
HETATM    8  C   LIG     1      20.285  38.905  19.337  1.00  0.00     0.051 C 
ENDROOT
BRANCH   1   9
HETATM    9  O   LIG     1      18.918  36.389  19.231  1.00  0.00    -0.360 OA
HETATM   10  H   LIG     1      19.229  36.690  18.314  1.00  0.00     0.217 HD
ENDBRANCH   1   9
TORSDOF 1
ENDMDL
MODEL 8
REMARK VINA RESULT:      -6.0      3.116      4.204
REMARK  1 active torsions:
REMARK  status: ('A' for Active; 'I' for Inactive)
REMARK    1  A    between atoms: O_1  and  C_2 
ROOT
HETATM    1  C   LIG     1      17.470  38.417  21.872  1.00  0.00     0.072 A 
HETATM    2  C   LIG     1      18.504  39.026  21.145  1.00  0.00     0.043 A 
HETATM    3  C   LIG     1      19.188  38.312  20.150  1.00  0.00    -0.059 A 
HETATM    4  C   LIG     1      20.265  38.981  19.348  1.00  0.00     0.048 C 
HETATM    5  C   LIG     1      18.809  36.994  19.862  1.00  0.00     0.007 A 
HETATM    6  C   LIG     1      17.781  36.382  20.584  1.00  0.00     0.010 A 
HETATM    7  C   LIG     1      17.111  37.083  21.600  1.00  0.00    -0.029 A 
HETATM    8  C   LIG     1      15.995  36.427  22.363  1.00  0.00     0.051 C 
ENDROOT
BRANCH   1   9
HETATM    9  O   LIG     1      16.798  39.133  22.862  1.00  0.00    -0.360 OA
HETATM   10  H   LIG     1      15.945  39.643  22.663  1.00  0.00     0.217 HD
ENDBRANCH   1   9
TORSDOF 1
ENDMDL
MODEL 9
REMARK VINA RESULT:      -6.0      1.003      3.340
REMARK  1 active torsions:
REMARK  status: ('A' for Active; 'I' for Inactive)
REMARK    1  A    between atoms: O_1  and  C_2 
ROOT
HETATM    1  C   LIG     1      16.954  37.348  23.377  1.00  0.00     0.072 A 
HETATM    2  C   LIG     1      17.442  37.384  24.693  1.00  0.00     0.043 A 
HETATM    3  C   LIG     1      17.686  36.195  25.394  1.00  0.00    -0.059 A 
HETATM    4  C   LIG     1      18.246  36.239  26.785  1.00  0.00     0.048 C 
HETATM    5  C   LIG     1      17.473  34.963  24.758  1.00  0.00     0.007 A 
HETATM    6  C   LIG     1      16.987  34.921  23.449  1.00  0.00     0.010 A 
HETATM    7  C   LIG     1      16.713  36.109  22.753  1.00  0.00    -0.029 A 
HETATM    8  C   LIG     1      16.206  36.059  21.340  1.00  0.00     0.051 C 
ENDROOT
BRANCH   1   9
HETATM    9  O   LIG     1      16.710  38.536  22.690  1.00  0.00    -0.360 OA
HETATM   10  H   LIG     1      16.707  38.574  21.678  1.00  0.00     0.217 HD
ENDBRANCH   1   9
TORSDOF 1
ENDMDL
MODEL 10
REMARK VINA RESULT:      -5.8      1.626      2.361
REMARK  1 active torsions:
REMARK  status: ('A' for Active; 'I' for Inactive)
REMARK    1  A    between atoms: O_1  and  C_2 
ROOT
HETATM    1  C   LIG     1      17.197  35.680  24.259  1.00  0.00     0.072 A 
HETATM    2  C   LIG     1      16.956  35.174  22.973  1.00  0.00     0.043 A 
HETATM    3  C   LIG     1      16.801  36.045  21.884  1.00  0.00    -0.059 A 
HETATM    4  C   LIG     1      16.584  35.498  20.505  1.00  0.00     0.048 C 
HETATM    5  C   LIG     1      16.922  37.427  22.084  1.00  0.00     0.007 A 
HETATM    6  C   LIG     1      17.161  37.937  23.363  1.00  0.00     0.010 A 
HETATM    7  C   LIG     1      17.290  37.070  24.461  1.00  0.00    -0.029 A 
HETATM    8  C   LIG     1      17.562  37.621  25.832  1.00  0.00     0.051 C 
ENDROOT
BRANCH   1   9
HETATM    9  O   LIG     1      17.347  34.807  25.336  1.00  0.00    -0.360 OA
HETATM   10  H   LIG     1      18.108  34.903  25.997  1.00  0.00     0.217 HD
ENDBRANCH   1   9
TORSDOF 1
ENDMDL
MODEL 11
REMARK VINA RESULT:      -5.8      1.650      2.037
REMARK  1 active torsions:
REMARK  status: ('A' for Active; 'I' for Inactive)
REMARK    1  A    between atoms: O_1  and  C_2 
ROOT
HETATM    1  C   LIG     1      16.062  37.598  22.969  1.00  0.00     0.072 A 
HETATM    2  C   LIG     1      15.758  36.689  21.944  1.00  0.00     0.043 A 
HETATM    3  C   LIG     1      16.255  35.378  21.986  1.00  0.00    -0.059 A 
HETATM    4  C   LIG     1      15.894  34.399  20.908  1.00  0.00     0.048 C 
HETATM    5  C   LIG     1      17.031  34.970  23.079  1.00  0.00     0.007 A 
HETATM    6  C   LIG     1      17.338  35.871  24.103  1.00  0.00     0.010 A 
HETATM    7  C   LIG     1      16.866  37.192  24.051  1.00  0.00    -0.029 A 
HETATM    8  C   LIG     1      17.184  38.153  25.161  1.00  0.00     0.051 C 
ENDROOT
BRANCH   1   9
HETATM    9  O   LIG     1      15.566  38.900  22.917  1.00  0.00    -0.360 OA
HETATM   10  H   LIG     1      15.115  39.264  22.085  1.00  0.00     0.217 HD
ENDBRANCH   1   9
TORSDOF 1
ENDMDL
MODEL 12
REMARK VINA RESULT:      -5.7      2.852      3.593
REMARK  1 active torsions:
REMARK  status: ('A' for Active; 'I' for Inactive)
REMARK    1  A    between atoms: O_1  and  C_2 
ROOT
HETATM    1  C   LIG     1      16.862  38.206  22.305  1.00  0.00     0.072 A 
HETATM    2  C   LIG     1      16.094  37.033  22.366  1.00  0.00     0.043 A 
HETATM    3  C   LIG     1      16.377  35.953  21.518  1.00  0.00    -0.059 A 
HETATM    4  C   LIG     1      15.579  34.686  21.617  1.00  0.00     0.048 C 
HETATM    5  C   LIG     1      17.458  36.038  20.629  1.00  0.00     0.007 A 
HETATM    6  C   LIG     1      18.226  37.204  20.563  1.00  0.00     0.010 A 
HETATM    7  C   LIG     1      17.928  38.299  21.390  1.00  0.00    -0.029 A 
HETATM    8  C   LIG     1      18.766  39.545  21.327  1.00  0.00     0.051 C 
ENDROOT
BRANCH   1   9
HETATM    9  O   LIG     1      16.571  39.276  23.149  1.00  0.00    -0.360 OA
HETATM   10  H   LIG     1      17.105  39.449  23.992  1.00  0.00     0.217 HD
ENDBRANCH   1   9
TORSDOF 1
ENDMDL
MODEL 13
REMARK VINA RESULT:      -5.6      8.301     10.355
REMARK  1 active torsions:
REMARK  status: ('A' for Active; 'I' for Inactive)
REMARK    1  A    between atoms: O_1  and  C_2 
ROOT
HETATM    1  C   LIG     1      14.024  31.821  16.587  1.00  0.00     0.072 A 
HETATM    2  C   LIG     1      13.961  30.656  15.806  1.00  0.00     0.043 A 
HETATM    3  C   LIG     1      14.876  30.450  14.763  1.00  0.00    -0.059 A 
HETATM    4  C   LIG     1      14.830  29.185  13.958  1.00  0.00     0.048 C 
HETATM    5  C   LIG     1      15.879  31.401  14.526  1.00  0.00     0.007 A 
HETATM    6  C   LIG     1      15.945  32.563  15.300  1.00  0.00     0.010 A 
HETATM    7  C   LIG     1      15.014  32.787  16.327  1.00  0.00    -0.029 A 
HETATM    8  C   LIG     1      15.099  34.030  17.167  1.00  0.00     0.051 C 
ENDROOT
BRANCH   1   9
HETATM    9  O   LIG     1      13.108  32.019  17.619  1.00  0.00    -0.360 OA
HETATM   10  H   LIG     1      13.408  32.226  18.564  1.00  0.00     0.217 HD
ENDBRANCH   1   9
TORSDOF 1
ENDMDL
MODEL 14
REMARK VINA RESULT:      -5.6      8.441     10.686
REMARK  1 active torsions:
REMARK  status: ('A' for Active; 'I' for Inactive)
REMARK    1  A    between atoms: O_1  and  C_2 
ROOT
HETATM    1  C   LIG     1      13.474  30.973  16.215  1.00  0.00     0.072 A 
HETATM    2  C   LIG     1      13.787  32.129  16.947  1.00  0.00     0.043 A 
HETATM    3  C   LIG     1      14.913  32.897  16.616  1.00  0.00    -0.059 A 
HETATM    4  C   LIG     1      15.219  34.154  17.374  1.00  0.00     0.048 C 
HETATM    5  C   LIG     1      15.708  32.520  15.524  1.00  0.00     0.007 A 
HETATM    6  C   LIG     1      15.402  31.369  14.793  1.00  0.00     0.010 A 
HETATM    7  C   LIG     1      14.292  30.582  15.138  1.00  0.00    -0.029 A 
HETATM    8  C   LIG     1      13.958  29.354  14.339  1.00  0.00     0.051 C 
ENDROOT
BRANCH   1   9
HETATM    9  O   LIG     1      12.355  30.215  16.554  1.00  0.00    -0.360 OA
HETATM   10  H   LIG     1      12.148  29.336  16.092  1.00  0.00     0.217 HD
ENDBRANCH   1   9
TORSDOF 1
ENDMDL
MODEL 15
REMARK VINA RESULT:      -5.6      1.912      2.707
REMARK  1 active torsions:
REMARK  status: ('A' for Active; 'I' for Inactive)
REMARK    1  A    between atoms: O_1  and  C_2 
ROOT
HETATM    1  C   LIG     1      17.146  35.849  23.882  1.00  0.00     0.072 A 
HETATM    2  C   LIG     1      16.942  36.950  23.036  1.00  0.00     0.043 A 
HETATM    3  C   LIG     1      17.103  38.257  23.518  1.00  0.00    -0.059 A 
HETATM    4  C   LIG     1      16.924  39.428  22.599  1.00  0.00     0.048 C 
HETATM    5  C   LIG     1      17.504  38.457  24.847  1.00  0.00     0.007 A 
HETATM    6  C   LIG     1      17.707  37.365  25.694  1.00  0.00     0.010 A 
HETATM    7  C   LIG     1      17.519  36.055  25.223  1.00  0.00    -0.029 A 
HETATM    8  C   LIG     1      17.754  34.883  26.134  1.00  0.00     0.051 C 
ENDROOT
BRANCH   1   9
HETATM    9  O   LIG     1      16.979  34.554  23.394  1.00  0.00    -0.360 OA
HETATM   10  H   LIG     1      16.823  34.372  22.410  1.00  0.00     0.217 HD
ENDBRANCH   1   9
TORSDOF 1
ENDMDL
MODEL 16
REMARK VINA RESULT:      -5.4      8.718     10.969
REMARK  1 active torsions:
REMARK  status: ('A' for Active; 'I' for Inactive)
REMARK    1  A    between atoms: O_1  and  C_2 
ROOT
HETATM    1  C   LIG     1      15.241  31.175  14.727  1.00  0.00     0.072 A 
HETATM    2  C   LIG     1      15.579  32.313  15.476  1.00  0.00     0.043 A 
HETATM    3  C   LIG     1      14.776  32.720  16.552  1.00  0.00    -0.059 A 
HETATM    4  C   LIG     1      15.164  33.914  17.373  1.00  0.00     0.048 C 
HETATM    5  C   LIG     1      13.650  31.961  16.898  1.00  0.00     0.007 A 
HETATM    6  C   LIG     1      13.309  30.827  16.156  1.00  0.00     0.010 A 
HETATM    7  C   LIG     1      14.093  30.432  15.060  1.00  0.00    -0.029 A 
HETATM    8  C   LIG     1      13.731  29.203  14.275  1.00  0.00     0.051 C 
ENDROOT
BRANCH   1   9
HETATM    9  O   LIG     1      16.043  30.781  13.657  1.00  0.00    -0.360 OA
HETATM   10  H   LIG     1      15.652  30.334  12.836  1.00  0.00     0.217 HD
ENDBRANCH   1   9
TORSDOF 1
ENDMDL
MODEL 17
REMARK VINA RESULT:      -5.3      7.960     10.011
REMARK  1 active torsions:
REMARK  status: ('A' for Active; 'I' for Inactive)
REMARK    1  A    between atoms: O_1  and  C_2 
ROOT
HETATM    1  C   LIG     1      15.875  32.734  15.674  1.00  0.00     0.072 A 
HETATM    2  C   LIG     1      15.681  31.598  14.874  1.00  0.00     0.043 A 
HETATM    3  C   LIG     1      14.598  30.738  15.111  1.00  0.00    -0.059 A 
HETATM    4  C   LIG     1      14.373  29.548  14.226  1.00  0.00     0.048 C 
HETATM    5  C   LIG     1      13.688  31.041  16.133  1.00  0.00     0.007 A 
HETATM    6  C   LIG     1      13.877  32.170  16.934  1.00  0.00     0.010 A 
HETATM    7  C   LIG     1      14.975  33.018  16.719  1.00  0.00    -0.029 A 
HETATM    8  C   LIG     1      15.165  34.241  17.572  1.00  0.00     0.051 C 
ENDROOT
BRANCH   1   9
HETATM    9  O   LIG     1      16.956  33.580  15.434  1.00  0.00    -0.360 OA
HETATM   10  H   LIG     1      17.302  34.217  16.143  1.00  0.00     0.217 HD
ENDBRANCH   1   9
TORSDOF 1
ENDMDL
MODEL 18
REMARK VINA RESULT:      -5.3      9.125     10.319
REMARK  1 active torsions:
REMARK  status: ('A' for Active; 'I' for Inactive)
REMARK    1  A    between atoms: O_1  and  C_2 
ROOT
HETATM    1  C   LIG     1      14.570  32.161  16.634  1.00  0.00     0.072 A 
HETATM    2  C   LIG     1      15.748  32.825  16.259  1.00  0.00     0.043 A 
HETATM    3  C   LIG     1      16.441  32.443  15.100  1.00  0.00    -0.059 A 
HETATM    4  C   LIG     1      17.676  33.183  14.682  1.00  0.00     0.048 C 
HETATM    5  C   LIG     1      15.929  31.413  14.299  1.00  0.00     0.007 A 
HETATM    6  C   LIG     1      14.756  30.748  14.668  1.00  0.00     0.010 A 
HETATM    7  C   LIG     1      14.075  31.108  15.842  1.00  0.00    -0.029 A 
HETATM    8  C   LIG     1      12.807  30.401  16.227  1.00  0.00     0.051 C 
ENDROOT
BRANCH   1   9
HETATM    9  O   LIG     1      13.891  32.545  17.789  1.00  0.00    -0.360 OA
HETATM   10  H   LIG     1      12.992  33.011  17.748  1.00  0.00     0.217 HD
ENDBRANCH   1   9
TORSDOF 1
ENDMDL
MODEL 19
REMARK VINA RESULT:      -5.2      9.209     10.212
REMARK  1 active torsions:
REMARK  status: ('A' for Active; 'I' for Inactive)
REMARK    1  A    between atoms: O_1  and  C_2 
ROOT
HETATM    1  C   LIG     1      15.669  33.214  15.950  1.00  0.00     0.072 A 
HETATM    2  C   LIG     1      14.531  32.562  16.449  1.00  0.00     0.043 A 
HETATM    3  C   LIG     1      14.128  31.329  15.918  1.00  0.00    -0.059 A 
HETATM    4  C   LIG     1      12.935  30.617  16.483  1.00  0.00     0.048 C 
HETATM    5  C   LIG     1      14.890  30.732  14.904  1.00  0.00     0.007 A 
HETATM    6  C   LIG     1      16.024  31.377  14.402  1.00  0.00     0.010 A 
HETATM    7  C   LIG     1      16.415  32.626  14.912  1.00  0.00    -0.029 A 
HETATM    8  C   LIG     1      17.644  33.308  14.380  1.00  0.00     0.051 C 
ENDROOT
BRANCH   1   9
HETATM    9  O   LIG     1      16.060  34.441  16.483  1.00  0.00    -0.360 OA
HETATM   10  H   LIG     1      15.429  35.234  16.513  1.00  0.00     0.217 HD
ENDBRANCH   1   9
TORSDOF 1
ENDMDL
MODEL 20
REMARK VINA RESULT:      -5.2      9.664     11.459
REMARK  1 active torsions:
REMARK  status: ('A' for Active; 'I' for Inactive)
REMARK    1  A    between atoms: O_1  and  C_2 
ROOT
HETATM    1  C   LIG     1      15.652  31.391  14.278  1.00  0.00     0.072 A 
HETATM    2  C   LIG     1      14.942  30.272  13.814  1.00  0.00     0.043 A 
HETATM    3  C   LIG     1      13.864  29.760  14.550  1.00  0.00    -0.059 A 
HETATM    4  C   LIG     1      13.083  28.590  14.030  1.00  0.00     0.048 C 
HETATM    5  C   LIG     1      13.476  30.395  15.738  1.00  0.00     0.007 A 
HETATM    6  C   LIG     1      14.179  31.508  16.205  1.00  0.00     0.010 A 
HETATM    7  C   LIG     1      15.277  32.008  15.486  1.00  0.00    -0.029 A 
HETATM    8  C   LIG     1      16.021  33.215  15.983  1.00  0.00     0.051 C 
ENDROOT
BRANCH   1   9
HETATM    9  O   LIG     1      16.725  31.890  13.541  1.00  0.00    -0.360 OA
HETATM   10  H   LIG     1      17.332  31.281  13.006  1.00  0.00     0.217 HD
ENDBRANCH   1   9
TORSDOF 1
ENDMDL
