REMARK  1 active torsions:
REMARK  status: ('A' for Active; 'I' for Inactive)
REMARK    1  A    between atoms: C_6  and  O_7 
ROOT
HETATM    1 CL   LIG     1       3.200   1.059  -0.380  1.00  0.00    -0.082 Cl
HETATM    2  C   LIG     1       1.555   0.465  -0.198  1.00  0.00     0.057 A 
HETATM    3  C   LIG     1       0.563   1.343   0.253  1.00  0.00     0.052 A 
HETATM    4  C   LIG     1      -0.756   0.904   0.409  1.00  0.00     0.068 A 
HETATM    5 CL   LIG     1      -1.964   2.048   0.980  1.00  0.00    -0.081 Cl
HETATM    6  C   LIG     1      -1.089  -0.432   0.110  1.00  0.00     0.089 A 
HETATM    7  C   LIG     1      -0.095  -1.307  -0.342  1.00  0.00     0.063 A 
HETATM    8  C   LIG     1       1.224  -0.867  -0.497  1.00  0.00     0.058 A 
HETATM    9 CL   LIG     1       2.440  -2.002  -1.067  1.00  0.00    -0.082 Cl
ENDROOT
BRANCH   6  10
HETATM   10  O   LIG     1      -2.391  -0.913   0.250  1.00  0.00    -0.359 OA
HETATM   11  H   LIG     1      -3.157  -0.335   0.571  1.00  0.00     0.217 HD
ENDBRANCH   6  10
TORSDOF 1
