MODEL 1
REMARK VINA RESULT:      -6.1      0.000      0.000
REMARK  1 active torsions:
REMARK  status: ('A' for Active; 'I' for Inactive)
REMARK    1  A    between atoms: C_6  and  O_7 
ROOT
HETATM    1 CL   LIG     1      16.998  35.812  20.803  1.00  0.00    -0.082 Cl
HETATM    2  C   LIG     1      17.181  36.371  22.460  1.00  0.00     0.057 A 
HETATM    3  C   LIG     1      17.103  35.441  23.502  1.00  0.00     0.052 A 
HETATM    4  C   LIG     1      17.243  35.852  24.832  1.00  0.00     0.068 A 
HETATM    5 CL   LIG     1      17.136  34.642  26.105  1.00  0.00    -0.081 Cl
HETATM    6  C   LIG     1      17.465  37.212  25.125  1.00  0.00     0.089 A 
HETATM    7  C   LIG     1      17.544  38.139  24.080  1.00  0.00     0.063 A 
HETATM    8  C   LIG     1      17.403  37.728  22.751  1.00  0.00     0.058 A 
HETATM    9 CL   LIG     1      17.508  38.928  21.471  1.00  0.00    -0.082 Cl
ENDROOT
BRANCH   6  10
HETATM   10  O   LIG     1      17.612  37.666  26.436  1.00  0.00    -0.359 OA
HETATM   11  H   LIG     1      17.264  38.564  26.747  1.00  0.00     0.217 HD
ENDBRANCH   6  10
TORSDOF 1
ENDMDL
MODEL 2
REMARK VINA RESULT:      -5.8      2.887      4.229
REMARK  1 active torsions:
REMARK  status: ('A' for Active; 'I' for Inactive)
REMARK    1  A    between atoms: C_6  and  O_7 
ROOT
HETATM    1 CL   LIG     1      16.473  35.039  22.824  1.00  0.00    -0.082 Cl
HETATM    2  C   LIG     1      17.228  36.505  22.214  1.00  0.00     0.057 A 
HETATM    3  C   LIG     1      17.719  36.520  20.903  1.00  0.00     0.052 A 
HETATM    4  C   LIG     1      18.325  37.670  20.386  1.00  0.00     0.068 A 
HETATM    5 CL   LIG     1      18.926  37.635  18.733  1.00  0.00    -0.081 Cl
HETATM    6  C   LIG     1      18.442  38.822  21.189  1.00  0.00     0.089 A 
HETATM    7  C   LIG     1      17.949  38.804  22.498  1.00  0.00     0.063 A 
HETATM    8  C   LIG     1      17.343  37.653  23.015  1.00  0.00     0.058 A 
HETATM    9 CL   LIG     1      16.739  37.676  24.666  1.00  0.00    -0.082 Cl
ENDROOT
BRANCH   6  10
HETATM   10  O   LIG     1      19.038  39.990  20.714  1.00  0.00    -0.359 OA
HETATM   11  H   LIG     1      19.459  40.057  19.796  1.00  0.00     0.217 HD
ENDBRANCH   6  10
TORSDOF 1
ENDMDL
MODEL 3
REMARK VINA RESULT:      -5.7      2.934      3.142
REMARK  1 active torsions:
REMARK  status: ('A' for Active; 'I' for Inactive)
REMARK    1  A    between atoms: C_6  and  O_7 
ROOT
HETATM    1 CL   LIG     1      19.513  36.660  19.430  1.00  0.00    -0.082 Cl
HETATM    2  C   LIG     1      18.183  36.982  20.534  1.00  0.00     0.057 A 
HETATM    3  C   LIG     1      17.161  36.034  20.660  1.00  0.00     0.052 A 
HETATM    4  C   LIG     1      16.088  36.258  21.529  1.00  0.00     0.068 A 
HETATM    5 CL   LIG     1      14.831  35.034  21.649  1.00  0.00    -0.081 Cl
HETATM    6  C   LIG     1      16.035  37.447  22.283  1.00  0.00     0.089 A 
HETATM    7  C   LIG     1      17.058  38.392  22.156  1.00  0.00     0.063 A 
HETATM    8  C   LIG     1      18.130  38.168  21.286  1.00  0.00     0.058 A 
HETATM    9 CL   LIG     1      19.393  39.384  21.157  1.00  0.00    -0.082 Cl
ENDROOT
BRANCH   6  10
HETATM   10  O   LIG     1      14.984  37.711  23.163  1.00  0.00    -0.359 OA
HETATM   11  H   LIG     1      15.011  38.466  23.836  1.00  0.00     0.217 HD
ENDBRANCH   6  10
TORSDOF 1
ENDMDL
MODEL 4
REMARK VINA RESULT:      -5.5      2.460      4.545
REMARK  1 active torsions:
REMARK  status: ('A' for Active; 'I' for Inactive)
REMARK    1  A    between atoms: C_6  and  O_7 
ROOT
HETATM    1 CL   LIG     1      17.396  37.885  25.808  1.00  0.00    -0.082 Cl
HETATM    2  C   LIG     1      17.410  37.332  24.139  1.00  0.00     0.057 A 
HETATM    3  C   LIG     1      17.670  38.256  23.121  1.00  0.00     0.052 A 
HETATM    4  C   LIG     1      17.690  37.850  21.782  1.00  0.00     0.068 A 
HETATM    5 CL   LIG     1      18.021  39.051  20.541  1.00  0.00    -0.081 Cl
HETATM    6  C   LIG     1      17.446  36.501  21.456  1.00  0.00     0.089 A 
HETATM    7  C   LIG     1      17.187  35.579  22.477  1.00  0.00     0.063 A 
HETATM    8  C   LIG     1      17.168  35.987  23.816  1.00  0.00     0.058 A 
HETATM    9 CL   LIG     1      16.838  34.794  25.065  1.00  0.00    -0.082 Cl
ENDROOT
BRANCH   6  10
HETATM   10  O   LIG     1      17.456  36.051  20.136  1.00  0.00    -0.359 OA
HETATM   11  H   LIG     1      16.614  35.786  19.641  1.00  0.00     0.217 HD
ENDBRANCH   6  10
TORSDOF 1
ENDMDL
MODEL 5
REMARK VINA RESULT:      -5.5      2.332      3.339
REMARK  1 active torsions:
REMARK  status: ('A' for Active; 'I' for Inactive)
REMARK    1  A    between atoms: C_6  and  O_7 
ROOT
HETATM    1 CL   LIG     1      18.974  39.735  20.385  1.00  0.00    -0.082 Cl
HETATM    2  C   LIG     1      18.241  38.340  21.164  1.00  0.00     0.057 A 
HETATM    3  C   LIG     1      17.818  38.450  22.493  1.00  0.00     0.052 A 
HETATM    4  C   LIG     1      17.230  37.360  23.144  1.00  0.00     0.068 A 
HETATM    5 CL   LIG     1      16.717  37.552  24.816  1.00  0.00    -0.081 Cl
HETATM    6  C   LIG     1      17.063  36.141  22.457  1.00  0.00     0.089 A 
HETATM    7  C   LIG     1      17.486  36.035  21.127  1.00  0.00     0.063 A 
HETATM    8  C   LIG     1      18.074  37.126  20.478  1.00  0.00     0.058 A 
HETATM    9 CL   LIG     1      18.591  36.945  18.807  1.00  0.00    -0.082 Cl
ENDROOT
BRANCH   6  10
HETATM   10  O   LIG     1      16.482  35.029  23.066  1.00  0.00    -0.359 OA
HETATM   11  H   LIG     1      17.002  34.396  23.660  1.00  0.00     0.217 HD
ENDBRANCH   6  10
TORSDOF 1
ENDMDL
MODEL 6
REMARK VINA RESULT:      -5.5      2.023      3.701
REMARK  1 active torsions:
REMARK  status: ('A' for Active; 'I' for Inactive)
REMARK    1  A    between atoms: C_6  and  O_7 
ROOT
HETATM    1 CL   LIG     1      17.054  34.691  25.637  1.00  0.00    -0.082 Cl
HETATM    2  C   LIG     1      17.191  35.888  24.356  1.00  0.00     0.057 A 
HETATM    3  C   LIG     1      17.037  35.479  23.026  1.00  0.00     0.052 A 
HETATM    4  C   LIG     1      17.138  36.405  21.983  1.00  0.00     0.068 A 
HETATM    5 CL   LIG     1      16.938  35.838  20.330  1.00  0.00    -0.081 Cl
HETATM    6  C   LIG     1      17.398  37.759  22.271  1.00  0.00     0.089 A 
HETATM    7  C   LIG     1      17.550  38.165  23.601  1.00  0.00     0.063 A 
HETATM    8  C   LIG     1      17.449  37.239  24.645  1.00  0.00     0.058 A 
HETATM    9 CL   LIG     1      17.648  37.794  26.301  1.00  0.00    -0.082 Cl
ENDROOT
BRANCH   6  10
HETATM   10  O   LIG     1      17.507  38.717  21.262  1.00  0.00    -0.359 OA
HETATM   11  H   LIG     1      16.956  39.565  21.251  1.00  0.00     0.217 HD
ENDBRANCH   6  10
TORSDOF 1
ENDMDL
MODEL 7
REMARK VINA RESULT:      -5.2      9.768     11.259
REMARK  1 active torsions:
REMARK  status: ('A' for Active; 'I' for Inactive)
REMARK    1  A    between atoms: C_6  and  O_7 
ROOT
HETATM    1 CL   LIG     1      13.353  30.873  17.002  1.00  0.00    -0.082 Cl
HETATM    2  C   LIG     1      14.483  31.281  15.719  1.00  0.00     0.057 A 
HETATM    3  C   LIG     1      15.348  32.367  15.897  1.00  0.00     0.052 A 
HETATM    4  C   LIG     1      16.260  32.720  14.897  1.00  0.00     0.068 A 
HETATM    5 CL   LIG     1      17.324  34.093  15.172  1.00  0.00    -0.081 Cl
HETATM    6  C   LIG     1      16.309  31.977  13.701  1.00  0.00     0.089 A 
HETATM    7  C   LIG     1      15.443  30.891  13.526  1.00  0.00     0.063 A 
HETATM    8  C   LIG     1      14.531  30.540  14.527  1.00  0.00     0.058 A 
HETATM    9 CL   LIG     1      13.462  29.169  14.263  1.00  0.00    -0.082 Cl
ENDROOT
BRANCH   6  10
HETATM   10  O   LIG     1      17.202  32.292  12.677  1.00  0.00    -0.359 OA
HETATM   11  H   LIG     1      17.738  33.150  12.662  1.00  0.00     0.217 HD
ENDBRANCH   6  10
TORSDOF 1
ENDMDL
MODEL 8
REMARK VINA RESULT:      -5.1      9.141     10.307
REMARK  1 active torsions:
REMARK  status: ('A' for Active; 'I' for Inactive)
REMARK    1  A    between atoms: C_6  and  O_7 
ROOT
HETATM    1 CL   LIG     1      14.437  29.252  14.129  1.00  0.00    -0.082 Cl
HETATM    2  C   LIG     1      14.905  30.779  14.865  1.00  0.00     0.057 A 
HETATM    3  C   LIG     1      16.060  31.425  14.410  1.00  0.00     0.052 A 
HETATM    4  C   LIG     1      16.461  32.641  14.972  1.00  0.00     0.068 A 
HETATM    5 CL   LIG     1      17.921  33.411  14.364  1.00  0.00    -0.081 Cl
HETATM    6  C   LIG     1      15.698  33.221  16.005  1.00  0.00     0.089 A 
HETATM    7  C   LIG     1      14.543  32.573  16.457  1.00  0.00     0.063 A 
HETATM    8  C   LIG     1      14.142  31.356  15.894  1.00  0.00     0.058 A 
HETATM    9 CL   LIG     1      12.685  30.578  16.494  1.00  0.00    -0.082 Cl
ENDROOT
BRANCH   6  10
HETATM   10  O   LIG     1      16.060  34.432  16.594  1.00  0.00    -0.359 OA
HETATM   11  H   LIG     1      15.382  35.080  16.976  1.00  0.00     0.217 HD
ENDBRANCH   6  10
TORSDOF 1
ENDMDL
MODEL 9
REMARK VINA RESULT:      -5.0     10.678     11.935
REMARK  1 active torsions:
REMARK  status: ('A' for Active; 'I' for Inactive)
REMARK    1  A    between atoms: C_6  and  O_7 
ROOT
HETATM    1 CL   LIG     1      13.039  32.156  16.955  1.00  0.00    -0.082 Cl
HETATM    2  C   LIG     1      13.788  31.128  15.742  1.00  0.00     0.057 A 
HETATM    3  C   LIG     1      13.093  30.003  15.282  1.00  0.00     0.052 A 
HETATM    4  C   LIG     1      13.660  29.164  14.317  1.00  0.00     0.068 A 
HETATM    5 CL   LIG     1      12.744  27.763  13.775  1.00  0.00    -0.081 Cl
HETATM    6  C   LIG     1      14.940  29.452  13.803  1.00  0.00     0.089 A 
HETATM    7  C   LIG     1      15.631  30.578  14.264  1.00  0.00     0.063 A 
HETATM    8  C   LIG     1      15.064  31.416  15.229  1.00  0.00     0.058 A 
HETATM    9 CL   LIG     1      15.971  32.819  15.779  1.00  0.00    -0.082 Cl
ENDROOT
BRANCH   6  10
HETATM   10  O   LIG     1      15.543  28.643  12.840  1.00  0.00    -0.359 OA
HETATM   11  H   LIG     1      16.313  28.959  12.264  1.00  0.00     0.217 HD
ENDBRANCH   6  10
TORSDOF 1
ENDMDL
MODEL 10
REMARK VINA RESULT:      -5.0      8.336      9.818
REMARK  1 active torsions:
REMARK  status: ('A' for Active; 'I' for Inactive)
REMARK    1  A    between atoms: C_6  and  O_7 
ROOT
HETATM    1 CL   LIG     1      17.033  32.588  13.295  1.00  0.00    -0.082 Cl
HETATM    2  C   LIG     1      15.991  32.360  14.693  1.00  0.00     0.057 A 
HETATM    3  C   LIG     1      15.986  33.331  15.701  1.00  0.00     0.052 A 
HETATM    4  C   LIG     1      15.169  33.182  16.827  1.00  0.00     0.068 A 
HETATM    5 CL   LIG     1      15.202  34.431  18.065  1.00  0.00    -0.081 Cl
HETATM    6  C   LIG     1      14.345  32.046  16.947  1.00  0.00     0.089 A 
HETATM    7  C   LIG     1      14.351  31.078  15.937  1.00  0.00     0.063 A 
HETATM    8  C   LIG     1      15.169  31.228  14.812  1.00  0.00     0.058 A 
HETATM    9 CL   LIG     1      15.144  29.985  13.568  1.00  0.00    -0.082 Cl
ENDROOT
BRANCH   6  10
HETATM   10  O   LIG     1      13.513  31.856  18.052  1.00  0.00    -0.359 OA
HETATM   11  H   LIG     1      12.849  32.552  18.363  1.00  0.00     0.217 HD
ENDBRANCH   6  10
TORSDOF 1
ENDMDL
MODEL 11
REMARK VINA RESULT:      -4.9      3.364      5.112
REMARK  1 active torsions:
REMARK  status: ('A' for Active; 'I' for Inactive)
REMARK    1  A    between atoms: C_6  and  O_7 
ROOT
HETATM    1 CL   LIG     1      17.052  38.792  23.880  1.00  0.00    -0.082 Cl
HETATM    2  C   LIG     1      17.601  38.084  22.367  1.00  0.00     0.057 A 
HETATM    3  C   LIG     1      18.524  38.787  21.585  1.00  0.00     0.052 A 
HETATM    4  C   LIG     1      18.983  38.254  20.375  1.00  0.00     0.068 A 
HETATM    5 CL   LIG     1      20.142  39.180  19.430  1.00  0.00    -0.081 Cl
HETATM    6  C   LIG     1      18.512  36.999  19.941  1.00  0.00     0.089 A 
HETATM    7  C   LIG     1      17.590  36.297  20.726  1.00  0.00     0.063 A 
HETATM    8  C   LIG     1      17.132  36.832  21.935  1.00  0.00     0.058 A 
HETATM    9 CL   LIG     1      15.973  35.916  22.888  1.00  0.00    -0.082 Cl
ENDROOT
BRANCH   6  10
HETATM   10  O   LIG     1      18.942  36.428  18.743  1.00  0.00    -0.359 OA
HETATM   11  H   LIG     1      19.772  36.739  18.255  1.00  0.00     0.217 HD
ENDBRANCH   6  10
TORSDOF 1
ENDMDL
MODEL 12
REMARK VINA RESULT:      -4.9      1.633      2.661
REMARK  1 active torsions:
REMARK  status: ('A' for Active; 'I' for Inactive)
REMARK    1  A    between atoms: C_6  and  O_7 
ROOT
HETATM    1 CL   LIG     1      16.179  39.044  22.278  1.00  0.00    -0.082 Cl
HETATM    2  C   LIG     1      16.693  37.679  23.259  1.00  0.00     0.057 A 
HETATM    3  C   LIG     1      17.312  37.924  24.491  1.00  0.00     0.052 A 
HETATM    4  C   LIG     1      17.733  36.861  25.297  1.00  0.00     0.068 A 
HETATM    5 CL   LIG     1      18.506  37.224  26.835  1.00  0.00    -0.081 Cl
HETATM    6  C   LIG     1      17.535  35.534  24.867  1.00  0.00     0.089 A 
HETATM    7  C   LIG     1      16.915  35.293  23.636  1.00  0.00     0.063 A 
HETATM    8  C   LIG     1      16.494  36.356  22.830  1.00  0.00     0.058 A 
HETATM    9 CL   LIG     1      15.721  36.005  21.290  1.00  0.00    -0.082 Cl
ENDROOT
BRANCH   6  10
HETATM   10  O   LIG     1      17.939  34.444  25.638  1.00  0.00    -0.359 OA
HETATM   11  H   LIG     1      17.687  33.491  25.413  1.00  0.00     0.217 HD
ENDBRANCH   6  10
TORSDOF 1
ENDMDL
MODEL 13
REMARK VINA RESULT:      -4.8      8.529     10.014
REMARK  1 active torsions:
REMARK  status: ('A' for Active; 'I' for Inactive)
REMARK    1  A    between atoms: C_6  and  O_7 
ROOT
HETATM    1 CL   LIG     1      12.718  30.094  16.065  1.00  0.00    -0.082 Cl
HETATM    2  C   LIG     1      14.073  31.200  15.887  1.00  0.00     0.057 A 
HETATM    3  C   LIG     1      14.179  32.289  16.761  1.00  0.00     0.052 A 
HETATM    4  C   LIG     1      15.244  33.188  16.648  1.00  0.00     0.068 A 
HETATM    5 CL   LIG     1      15.329  34.540  17.771  1.00  0.00    -0.081 Cl
HETATM    6  C   LIG     1      16.218  32.998  15.649  1.00  0.00     0.089 A 
HETATM    7  C   LIG     1      16.111  31.908  14.778  1.00  0.00     0.063 A 
HETATM    8  C   LIG     1      15.044  31.009  14.891  1.00  0.00     0.058 A 
HETATM    9 CL   LIG     1      14.949  29.654  13.774  1.00  0.00    -0.082 Cl
ENDROOT
BRANCH   6  10
HETATM   10  O   LIG     1      17.298  33.869  15.500  1.00  0.00    -0.359 OA
HETATM   11  H   LIG     1      17.188  34.835  15.221  1.00  0.00     0.217 HD
ENDBRANCH   6  10
TORSDOF 1
ENDMDL
MODEL 14
REMARK VINA RESULT:      -4.8      3.057      4.101
REMARK  1 active torsions:
REMARK  status: ('A' for Active; 'I' for Inactive)
REMARK    1  A    between atoms: C_6  and  O_7 
ROOT
HETATM    1 CL   LIG     1      16.774  37.565  24.590  1.00  0.00    -0.082 Cl
HETATM    2  C   LIG     1      17.057  37.167  22.900  1.00  0.00     0.057 A 
HETATM    3  C   LIG     1      16.500  35.994  22.378  1.00  0.00     0.052 A 
HETATM    4  C   LIG     1      16.705  35.647  21.038  1.00  0.00     0.068 A 
HETATM    5 CL   LIG     1      15.984  34.162  20.432  1.00  0.00    -0.081 Cl
HETATM    6  C   LIG     1      17.477  36.484  20.208  1.00  0.00     0.089 A 
HETATM    7  C   LIG     1      18.031  37.656  20.734  1.00  0.00     0.063 A 
HETATM    8  C   LIG     1      17.827  38.002  22.074  1.00  0.00     0.058 A 
HETATM    9 CL   LIG     1      18.543  39.485  22.691  1.00  0.00    -0.082 Cl
ENDROOT
BRANCH   6  10
HETATM   10  O   LIG     1      17.707  36.178  18.867  1.00  0.00    -0.359 OA
HETATM   11  H   LIG     1      18.468  36.579  18.336  1.00  0.00     0.217 HD
ENDBRANCH   6  10
TORSDOF 1
ENDMDL
MODEL 15
REMARK VINA RESULT:      -4.8      9.637     11.109
REMARK  1 active torsions:
REMARK  status: ('A' for Active; 'I' for Inactive)
REMARK    1  A    between atoms: C_6  and  O_7 
ROOT
HETATM    1 CL   LIG     1      15.688  29.441  13.099  1.00  0.00    -0.082 Cl
HETATM    2  C   LIG     1      14.785  30.233  14.384  1.00  0.00     0.057 A 
HETATM    3  C   LIG     1      15.335  31.360  15.004  1.00  0.00     0.052 A 
HETATM    4  C   LIG     1      14.644  32.015  16.029  1.00  0.00     0.068 A 
HETATM    5 CL   LIG     1      15.380  33.427  16.775  1.00  0.00    -0.081 Cl
HETATM    6  C   LIG     1      13.385  31.535  16.441  1.00  0.00     0.089 A 
HETATM    7  C   LIG     1      12.837  30.408  15.819  1.00  0.00     0.063 A 
HETATM    8  C   LIG     1      13.530  29.754  14.794  1.00  0.00     0.058 A 
HETATM    9 CL   LIG     1      12.803  28.341  14.041  1.00  0.00    -0.082 Cl
ENDROOT
BRANCH   6  10
HETATM   10  O   LIG     1      12.660  32.157  17.458  1.00  0.00    -0.359 OA
HETATM   11  H   LIG     1      12.022  31.654  18.062  1.00  0.00     0.217 HD
ENDBRANCH   6  10
TORSDOF 1
ENDMDL
MODEL 16
REMARK VINA RESULT:      -4.5      9.148     10.595
REMARK  1 active torsions:
REMARK  status: ('A' for Active; 'I' for Inactive)
REMARK    1  A    between atoms: C_6  and  O_7 
ROOT
HETATM    1 CL   LIG     1      13.643  31.671  17.820  1.00  0.00    -0.082 Cl
HETATM    2  C   LIG     1      14.631  31.810  16.371  1.00  0.00     0.057 A 
HETATM    3  C   LIG     1      14.662  30.742  15.467  1.00  0.00     0.052 A 
HETATM    4  C   LIG     1      15.437  30.819  14.305  1.00  0.00     0.068 A 
HETATM    5 CL   LIG     1      15.442  29.448  13.202  1.00  0.00    -0.081 Cl
HETATM    6  C   LIG     1      16.191  31.979  14.042  1.00  0.00     0.089 A 
HETATM    7  C   LIG     1      16.157  33.046  14.947  1.00  0.00     0.063 A 
HETATM    8  C   LIG     1      15.382  32.967  16.110  1.00  0.00     0.058 A 
HETATM    9 CL   LIG     1      15.369  34.332  17.219  1.00  0.00    -0.082 Cl
ENDROOT
BRANCH   6  10
HETATM   10  O   LIG     1      16.977  32.100  12.896  1.00  0.00    -0.359 OA
HETATM   11  H   LIG     1      17.909  32.493  12.909  1.00  0.00     0.217 HD
ENDBRANCH   6  10
TORSDOF 1
ENDMDL
MODEL 17
REMARK VINA RESULT:      -4.5      1.275      3.382
REMARK  1 active torsions:
REMARK  status: ('A' for Active; 'I' for Inactive)
REMARK    1  A    between atoms: C_6  and  O_7 
ROOT
HETATM    1 CL   LIG     1      17.182  34.467  22.746  1.00  0.00    -0.082 Cl
HETATM    2  C   LIG     1      17.217  35.970  23.657  1.00  0.00     0.057 A 
HETATM    3  C   LIG     1      17.013  37.178  22.980  1.00  0.00     0.052 A 
HETATM    4  C   LIG     1      17.035  38.393  23.674  1.00  0.00     0.068 A 
HETATM    5 CL   LIG     1      16.774  39.882  22.775  1.00  0.00    -0.081 Cl
HETATM    6  C   LIG     1      17.264  38.401  25.064  1.00  0.00     0.089 A 
HETATM    7  C   LIG     1      17.467  37.192  25.738  1.00  0.00     0.063 A 
HETATM    8  C   LIG     1      17.445  35.978  25.043  1.00  0.00     0.058 A 
HETATM    9 CL   LIG     1      17.706  34.482  25.931  1.00  0.00    -0.082 Cl
ENDROOT
BRANCH   6  10
HETATM   10  O   LIG     1      17.294  39.588  25.796  1.00  0.00    -0.359 OA
HETATM   11  H   LIG     1      17.234  40.501  25.363  1.00  0.00     0.217 HD
ENDBRANCH   6  10
TORSDOF 1
ENDMDL
MODEL 18
REMARK VINA RESULT:      -4.3      3.082      4.401
REMARK  1 active torsions:
REMARK  status: ('A' for Active; 'I' for Inactive)
REMARK    1  A    between atoms: C_6  and  O_7 
ROOT
HETATM    1 CL   LIG     1      18.712  38.196  20.993  1.00  0.00    -0.082 Cl
HETATM    2  C   LIG     1      17.460  36.975  21.174  1.00  0.00     0.057 A 
HETATM    3  C   LIG     1      17.041  36.261  20.046  1.00  0.00     0.052 A 
HETATM    4  C   LIG     1      16.047  35.283  20.153  1.00  0.00     0.068 A 
HETATM    5 CL   LIG     1      15.555  34.416  18.704  1.00  0.00    -0.081 Cl
HETATM    6  C   LIG     1      15.464  35.013  21.407  1.00  0.00     0.089 A 
HETATM    7  C   LIG     1      15.886  35.727  22.534  1.00  0.00     0.063 A 
HETATM    8  C   LIG     1      16.880  36.706  22.425  1.00  0.00     0.058 A 
HETATM    9 CL   LIG     1      17.379  37.578  23.867  1.00  0.00    -0.082 Cl
ENDROOT
BRANCH   6  10
HETATM   10  O   LIG     1      14.470  34.045  21.562  1.00  0.00    -0.359 OA
HETATM   11  H   LIG     1      14.655  33.053  21.485  1.00  0.00     0.217 HD
ENDBRANCH   6  10
TORSDOF 1
ENDMDL
MODEL 19
REMARK VINA RESULT:      -4.1     11.089     12.551
REMARK  1 active torsions:
REMARK  status: ('A' for Active; 'I' for Inactive)
REMARK    1  A    between atoms: C_6  and  O_7 
ROOT
HETATM    1 CL   LIG     1      15.601  27.360  12.701  1.00  0.00    -0.082 Cl
HETATM    2  C   LIG     1      14.785  28.549  13.707  1.00  0.00     0.057 A 
HETATM    3  C   LIG     1      15.503  29.661  14.160  1.00  0.00     0.052 A 
HETATM    4  C   LIG     1      14.884  30.626  14.962  1.00  0.00     0.068 A 
HETATM    5 CL   LIG     1      15.832  32.005  15.505  1.00  0.00    -0.081 Cl
HETATM    6  C   LIG     1      13.529  30.478  15.317  1.00  0.00     0.089 A 
HETATM    7  C   LIG     1      12.814  29.364  14.862  1.00  0.00     0.063 A 
HETATM    8  C   LIG     1      13.434  28.399  14.060  1.00  0.00     0.058 A 
HETATM    9 CL   LIG     1      12.496  27.017  13.512  1.00  0.00    -0.082 Cl
ENDROOT
BRANCH   6  10
HETATM   10  O   LIG     1      12.872  31.415  16.114  1.00  0.00    -0.359 OA
HETATM   11  H   LIG     1      12.869  32.405  15.907  1.00  0.00     0.217 HD
ENDBRANCH   6  10
TORSDOF 1
ENDMDL
MODEL 20
REMARK VINA RESULT:      -3.9      2.659      4.002
REMARK  1 active torsions:
REMARK  status: ('A' for Active; 'I' for Inactive)
REMARK    1  A    between atoms: C_6  and  O_7 
ROOT
HETATM    1 CL   LIG     1      15.664  34.592  18.576  1.00  0.00    -0.082 Cl
HETATM    2  C   LIG     1      16.131  35.228  20.148  1.00  0.00     0.057 A 
HETATM    3  C   LIG     1      16.977  36.341  20.204  1.00  0.00     0.052 A 
HETATM    4  C   LIG     1      17.368  36.873  21.438  1.00  0.00     0.068 A 
HETATM    5 CL   LIG     1      18.434  38.273  21.453  1.00  0.00    -0.081 Cl
HETATM    6  C   LIG     1      16.907  36.285  22.632  1.00  0.00     0.089 A 
HETATM    7  C   LIG     1      16.060  35.173  22.572  1.00  0.00     0.063 A 
HETATM    8  C   LIG     1      15.670  34.641  21.338  1.00  0.00     0.058 A 
HETATM    9 CL   LIG     1      14.605  33.242  21.311  1.00  0.00    -0.082 Cl
ENDROOT
BRANCH   6  10
HETATM   10  O   LIG     1      17.271  36.782  23.883  1.00  0.00    -0.359 OA
HETATM   11  H   LIG     1      17.075  37.732  24.173  1.00  0.00     0.217 HD
ENDBRANCH   6  10
TORSDOF 1
ENDMDL
