MODEL 1
REMARK VINA RESULT:      -9.4      0.000      0.000
REMARK  3 active torsions:
REMARK  status: ('A' for Active; 'I' for Inactive)
REMARK    1  A    between atoms: C_2  and  C_6 
REMARK       I    between atoms: C_2  and  N_3 
REMARK    2  A    between atoms: C_6  and  C_13 
REMARK    3  A    between atoms: C_6  and  C_7 
ROOT
HETATM    1  C   LIG     1      16.787  36.488  22.631  1.00  0.00     0.144 C 
ENDROOT
BRANCH   1   2
HETATM    2  C   LIG     1      16.645  35.157  21.907  1.00  0.00     0.232 C 
HETATM    3  O   LIG     1      17.578  34.310  21.984  1.00  0.00    -0.272 OA
HETATM    4  N   LIG     1      15.448  34.818  21.169  1.00  0.00    -0.360 N 
HETATM    5  C   LIG     1      14.363  35.791  20.985  1.00  0.00     0.152 C 
HETATM    6  C   LIG     1      15.328  33.475  20.594  1.00  0.00     0.152 C 
ENDBRANCH   1   2
BRANCH   1   7
HETATM    7  C   LIG     1      17.316  36.330  24.046  1.00  0.00    -0.041 A 
HETATM    8  C   LIG     1      17.797  37.428  24.789  1.00  0.00     0.008 A 
HETATM    9  C   LIG     1      18.256  37.251  26.098  1.00  0.00     0.001 A 
HETATM   10  C   LIG     1      18.232  35.984  26.683  1.00  0.00     0.000 A 
HETATM   11  C   LIG     1      17.745  34.891  25.963  1.00  0.00     0.001 A 
HETATM   12  C   LIG     1      17.285  35.062  24.654  1.00  0.00     0.008 A 
ENDBRANCH   1   7
BRANCH   1  13
HETATM   13  C   LIG     1      17.631  37.488  21.855  1.00  0.00    -0.041 A 
HETATM   14  C   LIG     1      17.816  38.806  22.320  1.00  0.00     0.008 A 
HETATM   15  C   LIG     1      18.591  39.713  21.593  1.00  0.00     0.001 A 
HETATM   16  C   LIG     1      19.191  39.319  20.396  1.00  0.00     0.000 A 
HETATM   17  C   LIG     1      19.019  38.016  19.924  1.00  0.00     0.001 A 
HETATM   18  C   LIG     1      18.245  37.104  20.647  1.00  0.00     0.008 A 
ENDBRANCH   1  13
TORSDOF 3
ENDMDL
MODEL 2
REMARK VINA RESULT:      -7.1      1.088      4.418
REMARK  3 active torsions:
REMARK  status: ('A' for Active; 'I' for Inactive)
REMARK    1  A    between atoms: C_2  and  C_6 
REMARK       I    between atoms: C_2  and  N_3 
REMARK    2  A    between atoms: C_6  and  C_13 
REMARK    3  A    between atoms: C_6  and  C_7 
ROOT
HETATM    1  C   LIG     1      17.228  36.240  22.261  1.00  0.00     0.144 C 
ENDROOT
BRANCH   1   2
HETATM    2  C   LIG     1      15.745  36.233  21.917  1.00  0.00     0.232 C 
HETATM    3  O   LIG     1      15.001  37.143  22.376  1.00  0.00    -0.272 OA
HETATM    4  N   LIG     1      15.174  35.235  21.039  1.00  0.00    -0.360 N 
HETATM    5  C   LIG     1      15.976  34.112  20.536  1.00  0.00     0.152 C 
HETATM    6  C   LIG     1      13.764  35.353  20.656  1.00  0.00     0.152 C 
ENDBRANCH   1   2
BRANCH   1   7
HETATM    7  C   LIG     1      17.996  37.317  21.514  1.00  0.00    -0.041 A 
HETATM    8  C   LIG     1      18.108  38.632  22.010  1.00  0.00     0.008 A 
HETATM    9  C   LIG     1      18.842  39.593  21.309  1.00  0.00     0.001 A 
HETATM   10  C   LIG     1      19.480  39.254  20.114  1.00  0.00     0.000 A 
HETATM   11  C   LIG     1      19.388  37.951  19.619  1.00  0.00     0.001 A 
HETATM   12  C   LIG     1      18.655  36.986  20.316  1.00  0.00     0.008 A 
ENDBRANCH   1   7
BRANCH   1  13
HETATM   13  C   LIG     1      17.479  36.346  23.757  1.00  0.00    -0.041 A 
HETATM   14  C   LIG     1      17.696  37.595  24.375  1.00  0.00     0.008 A 
HETATM   15  C   LIG     1      17.929  37.674  25.751  1.00  0.00     0.001 A 
HETATM   16  C   LIG     1      17.949  36.514  26.526  1.00  0.00     0.000 A 
HETATM   17  C   LIG     1      17.733  35.271  25.928  1.00  0.00     0.001 A 
HETATM   18  C   LIG     1      17.499  35.184  24.553  1.00  0.00     0.008 A 
ENDBRANCH   1  13
TORSDOF 3
ENDMDL
MODEL 3
REMARK VINA RESULT:      -7.1      1.836      5.019
REMARK  3 active torsions:
REMARK  status: ('A' for Active; 'I' for Inactive)
REMARK    1  A    between atoms: C_2  and  C_6 
REMARK       I    between atoms: C_2  and  N_3 
REMARK    2  A    between atoms: C_6  and  C_13 
REMARK    3  A    between atoms: C_6  and  C_7 
ROOT
HETATM    1  C   LIG     1      16.320  37.297  23.340  1.00  0.00     0.144 C 
ENDROOT
BRANCH   1   2
HETATM    2  C   LIG     1      16.951  38.541  22.732  1.00  0.00     0.232 C 
HETATM    3  O   LIG     1      16.641  39.676  23.190  1.00  0.00    -0.272 OA
HETATM    4  N   LIG     1      17.932  38.455  21.672  1.00  0.00    -0.360 N 
HETATM    5  C   LIG     1      18.276  37.168  21.054  1.00  0.00     0.152 C 
HETATM    6  C   LIG     1      18.586  39.683  21.212  1.00  0.00     0.152 C 
ENDBRANCH   1   2
BRANCH   1   7
HETATM    7  C   LIG     1      16.040  36.219  22.307  1.00  0.00    -0.041 A 
HETATM    8  C   LIG     1      14.946  36.302  21.421  1.00  0.00     0.008 A 
HETATM    9  C   LIG     1      14.731  35.303  20.467  1.00  0.00     0.001 A 
HETATM   10  C   LIG     1      15.605  34.218  20.378  1.00  0.00     0.000 A 
HETATM   11  C   LIG     1      16.700  34.131  21.240  1.00  0.00     0.001 A 
HETATM   12  C   LIG     1      16.920  35.127  22.197  1.00  0.00     0.008 A 
ENDBRANCH   1   7
BRANCH   1  13
HETATM   13  C   LIG     1      17.138  36.731  24.492  1.00  0.00    -0.041 A 
HETATM   14  C   LIG     1      18.034  37.541  25.219  1.00  0.00     0.008 A 
HETATM   15  C   LIG     1      18.780  37.004  26.272  1.00  0.00     0.001 A 
HETATM   16  C   LIG     1      18.643  35.658  26.613  1.00  0.00     0.000 A 
HETATM   17  C   LIG     1      17.756  34.844  25.904  1.00  0.00     0.001 A 
HETATM   18  C   LIG     1      17.007  35.375  24.850  1.00  0.00     0.008 A 
ENDBRANCH   1  13
TORSDOF 3
ENDMDL
MODEL 4
REMARK VINA RESULT:      -6.9      2.090      4.315
REMARK  3 active torsions:
REMARK  status: ('A' for Active; 'I' for Inactive)
REMARK    1  A    between atoms: C_2  and  C_6 
REMARK       I    between atoms: C_2  and  N_3 
REMARK    2  A    between atoms: C_6  and  C_13 
REMARK    3  A    between atoms: C_6  and  C_7 
ROOT
HETATM    1  C   LIG     1      17.734  37.068  22.418  1.00  0.00     0.144 C 
ENDROOT
BRANCH   1   2
HETATM    2  C   LIG     1      17.268  38.057  23.477  1.00  0.00     0.232 C 
HETATM    3  O   LIG     1      16.498  39.001  23.143  1.00  0.00    -0.272 OA
HETATM    4  N   LIG     1      17.648  37.918  24.866  1.00  0.00    -0.360 N 
HETATM    5  C   LIG     1      18.597  36.884  25.297  1.00  0.00     0.152 C 
HETATM    6  C   LIG     1      17.070  38.835  25.853  1.00  0.00     0.152 C 
ENDBRANCH   1   2
BRANCH   1   7
HETATM    7  C   LIG     1      16.638  36.105  21.995  1.00  0.00    -0.041 A 
HETATM    8  C   LIG     1      15.304  36.524  21.816  1.00  0.00     0.008 A 
HETATM    9  C   LIG     1      14.325  35.616  21.404  1.00  0.00     0.001 A 
HETATM   10  C   LIG     1      14.664  34.284  21.157  1.00  0.00     0.000 A 
HETATM   11  C   LIG     1      15.985  33.859  21.316  1.00  0.00     0.001 A 
HETATM   12  C   LIG     1      16.969  34.763  21.728  1.00  0.00     0.008 A 
ENDBRANCH   1   7
BRANCH   1  13
HETATM   13  C   LIG     1      18.337  37.756  21.202  1.00  0.00    -0.041 A 
HETATM   14  C   LIG     1      18.498  37.071  19.980  1.00  0.00     0.008 A 
HETATM   15  C   LIG     1      19.057  37.717  18.874  1.00  0.00     0.001 A 
HETATM   16  C   LIG     1      19.461  39.050  18.971  1.00  0.00     0.000 A 
HETATM   17  C   LIG     1      19.305  39.741  20.174  1.00  0.00     0.001 A 
HETATM   18  C   LIG     1      18.746  39.101  21.284  1.00  0.00     0.008 A 
ENDBRANCH   1  13
TORSDOF 3
ENDMDL
MODEL 5
REMARK VINA RESULT:      -6.5      1.690      4.023
REMARK  3 active torsions:
REMARK  status: ('A' for Active; 'I' for Inactive)
REMARK    1  A    between atoms: C_2  and  C_6 
REMARK       I    between atoms: C_2  and  N_3 
REMARK    2  A    between atoms: C_6  and  C_13 
REMARK    3  A    between atoms: C_6  and  C_7 
ROOT
HETATM    1  C   LIG     1      17.839  36.504  22.471  1.00  0.00     0.144 C 
ENDROOT
BRANCH   1   2
HETATM    2  C   LIG     1      17.907  37.943  21.978  1.00  0.00     0.232 C 
HETATM    3  O   LIG     1      17.426  38.864  22.695  1.00  0.00    -0.272 OA
HETATM    4  N   LIG     1      18.550  38.288  20.729  1.00  0.00    -0.360 N 
HETATM    5  C   LIG     1      19.060  37.252  19.822  1.00  0.00     0.152 C 
HETATM    6  C   LIG     1      18.685  39.703  20.370  1.00  0.00     0.152 C 
ENDBRANCH   1   2
BRANCH   1   7
HETATM    7  C   LIG     1      17.800  36.406  23.986  1.00  0.00    -0.041 A 
HETATM    8  C   LIG     1      17.560  35.185  24.649  1.00  0.00     0.008 A 
HETATM    9  C   LIG     1      17.554  35.127  26.046  1.00  0.00     0.001 A 
HETATM   10  C   LIG     1      17.797  36.278  26.796  1.00  0.00     0.000 A 
HETATM   11  C   LIG     1      18.052  37.491  26.152  1.00  0.00     0.001 A 
HETATM   12  C   LIG     1      18.058  37.556  24.755  1.00  0.00     0.008 A 
ENDBRANCH   1   7
BRANCH   1  13
HETATM   13  C   LIG     1      16.681  35.732  21.858  1.00  0.00    -0.041 A 
HETATM   14  C   LIG     1      15.379  36.273  21.818  1.00  0.00     0.008 A 
HETATM   15  C   LIG     1      14.326  35.549  21.255  1.00  0.00     0.001 A 
HETATM   16  C   LIG     1      14.555  34.278  20.723  1.00  0.00     0.000 A 
HETATM   17  C   LIG     1      15.839  33.730  20.753  1.00  0.00     0.001 A 
HETATM   18  C   LIG     1      16.897  34.450  21.315  1.00  0.00     0.008 A 
ENDBRANCH   1  13
TORSDOF 3
ENDMDL
MODEL 6
REMARK VINA RESULT:      -6.4      5.902      9.567
REMARK  3 active torsions:
REMARK  status: ('A' for Active; 'I' for Inactive)
REMARK    1  A    between atoms: C_2  and  C_6 
REMARK       I    between atoms: C_2  and  N_3 
REMARK    2  A    between atoms: C_6  and  C_13 
REMARK    3  A    between atoms: C_6  and  C_7 
ROOT
HETATM    1  C   LIG     1      15.743  32.766  15.420  1.00  0.00     0.144 C 
ENDROOT
BRANCH   1   2
HETATM    2  C   LIG     1      17.198  32.801  14.973  1.00  0.00     0.232 C 
HETATM    3  O   LIG     1      18.056  32.133  15.613  1.00  0.00    -0.272 OA
HETATM    4  N   LIG     1      17.615  33.546  13.805  1.00  0.00    -0.360 N 
HETATM    5  C   LIG     1      16.675  34.398  13.066  1.00  0.00     0.152 C 
HETATM    6  C   LIG     1      19.009  33.443  13.361  1.00  0.00     0.152 C 
ENDBRANCH   1   2
BRANCH   1   7
HETATM    7  C   LIG     1      15.046  31.471  15.041  1.00  0.00    -0.041 A 
HETATM    8  C   LIG     1      13.748  31.162  15.496  1.00  0.00     0.008 A 
HETATM    9  C   LIG     1      13.127  29.971  15.109  1.00  0.00     0.001 A 
HETATM   10  C   LIG     1      13.785  29.081  14.258  1.00  0.00     0.000 A 
HETATM   11  C   LIG     1      15.066  29.382  13.789  1.00  0.00     0.001 A 
HETATM   12  C   LIG     1      15.692  30.572  14.173  1.00  0.00     0.008 A 
ENDBRANCH   1   7
BRANCH   1  13
HETATM   13  C   LIG     1      15.583  33.042  16.907  1.00  0.00    -0.041 A 
HETATM   14  C   LIG     1      15.507  31.989  17.842  1.00  0.00     0.008 A 
HETATM   15  C   LIG     1      15.356  32.260  19.205  1.00  0.00     0.001 A 
HETATM   16  C   LIG     1      15.280  33.580  19.653  1.00  0.00     0.000 A 
HETATM   17  C   LIG     1      15.357  34.633  18.739  1.00  0.00     0.001 A 
HETATM   18  C   LIG     1      15.508  34.369  17.375  1.00  0.00     0.008 A 
ENDBRANCH   1  13
TORSDOF 3
ENDMDL
