REMARK  3 active torsions:
REMARK  status: ('A' for Active; 'I' for Inactive)
REMARK    1  A    between atoms: C_2  and  C_6 
REMARK       I    between atoms: C_2  and  N_3 
REMARK    2  A    between atoms: C_6  and  C_13 
REMARK    3  A    between atoms: C_6  and  C_7 
ROOT
HETATM    1  C   LIG     1       0.408   0.287  -0.292  1.00  0.00     0.144 C 
ENDROOT
BRANCH   1   2
HETATM    2  C   LIG     1       1.400  -0.054   0.811  1.00  0.00     0.232 C 
HETATM    3  O   LIG     1       1.351   0.580   1.902  1.00  0.00    -0.272 OA
HETATM    4  N   LIG     1       2.369  -1.117   0.659  1.00  0.00    -0.360 N 
HETATM    5  C   LIG     1       2.519  -1.837  -0.612  1.00  0.00     0.152 C 
HETATM    6  C   LIG     1       3.216  -1.471   1.802  1.00  0.00     0.152 C 
ENDBRANCH   1   2
BRANCH   1   7
HETATM    7  C   LIG     1      -0.672  -0.769  -0.454  1.00  0.00    -0.041 A 
HETATM    8  C   LIG     1      -1.187  -1.484   0.647  1.00  0.00     0.008 A 
HETATM    9  C   LIG     1      -2.197  -2.433   0.465  1.00  0.00     0.001 A 
HETATM   10  C   LIG     1      -2.712  -2.673  -0.810  1.00  0.00     0.000 A 
HETATM   11  C   LIG     1      -2.221  -1.961  -1.907  1.00  0.00     0.001 A 
HETATM   12  C   LIG     1      -1.210  -1.011  -1.731  1.00  0.00     0.008 A 
ENDBRANCH   1   7
BRANCH   1  13
HETATM   13  C   LIG     1      -0.215   1.663  -0.112  1.00  0.00    -0.041 A 
HETATM   14  C   LIG     1      -1.124   1.923   0.934  1.00  0.00     0.008 A 
HETATM   15  C   LIG     1      -1.690   3.192   1.083  1.00  0.00     0.001 A 
HETATM   16  C   LIG     1      -1.358   4.216   0.194  1.00  0.00     0.000 A 
HETATM   17  C   LIG     1      -0.457   3.974  -0.845  1.00  0.00     0.001 A 
HETATM   18  C   LIG     1       0.113   2.707  -0.999  1.00  0.00     0.008 A 
ENDBRANCH   1  13
TORSDOF 3
