MODEL 1
REMARK VINA RESULT:      -6.4      0.000      0.000
REMARK  1 active torsions:
REMARK  status: ('A' for Active; 'I' for Inactive)
REMARK    1  A    between atoms: C_1  and  C_2 
ROOT
HETATM    1  C   LIG     1      17.322  36.778  24.214  1.00  0.00    -0.027 A 
HETATM    2  C   LIG     1      17.961  37.528  25.214  1.00  0.00     0.010 A 
HETATM    3  C   LIG     1      18.400  36.906  26.387  1.00  0.00     0.001 A 
HETATM    4  C   LIG     1      18.212  35.531  26.564  1.00  0.00     0.000 A 
HETATM    5  C   LIG     1      17.589  34.776  25.565  1.00  0.00     0.001 A 
HETATM    6  C   LIG     1      17.149  35.395  24.391  1.00  0.00     0.010 A 
ENDROOT
BRANCH   1   7
HETATM    7  C   LIG     1      16.874  37.442  22.945  1.00  0.00     0.178 A 
HETATM    8  C   LIG     1      15.433  37.772  22.840  1.00  0.00     0.205 A 
HETATM    9  O   LIG     1      16.389  38.741  23.199  1.00  0.00    -0.376 OA
ENDBRANCH   1   7
TORSDOF 1
ENDMDL
MODEL 2
REMARK VINA RESULT:      -6.2      2.399      4.279
REMARK  1 active torsions:
REMARK  status: ('A' for Active; 'I' for Inactive)
REMARK    1  A    between atoms: C_1  and  C_2 
ROOT
HETATM    1  C   LIG     1      17.358  37.819  21.959  1.00  0.00    -0.027 A 
HETATM    2  C   LIG     1      18.068  39.002  21.701  1.00  0.00     0.010 A 
HETATM    3  C   LIG     1      18.969  39.062  20.633  1.00  0.00     0.001 A 
HETATM    4  C   LIG     1      19.159  37.945  19.812  1.00  0.00     0.000 A 
HETATM    5  C   LIG     1      18.444  36.769  20.056  1.00  0.00     0.001 A 
HETATM    6  C   LIG     1      17.542  36.705  21.123  1.00  0.00     0.010 A 
ENDROOT
BRANCH   1   7
HETATM    7  C   LIG     1      16.374  37.764  23.090  1.00  0.00     0.178 A 
HETATM    8  C   LIG     1      16.902  37.357  24.414  1.00  0.00     0.205 A 
HETATM    9  O   LIG     1      16.693  38.709  24.085  1.00  0.00    -0.376 OA
ENDBRANCH   1   7
TORSDOF 1
ENDMDL
MODEL 3
REMARK VINA RESULT:      -5.9      3.879      5.086
REMARK  1 active torsions:
REMARK  status: ('A' for Active; 'I' for Inactive)
REMARK    1  A    between atoms: C_1  and  C_2 
ROOT
HETATM    1  C   LIG     1      17.777  36.867  20.917  1.00  0.00    -0.027 A 
HETATM    2  C   LIG     1      18.667  36.873  19.832  1.00  0.00     0.010 A 
HETATM    3  C   LIG     1      19.399  38.027  19.531  1.00  0.00     0.001 A 
HETATM    4  C   LIG     1      19.252  39.175  20.316  1.00  0.00     0.000 A 
HETATM    5  C   LIG     1      18.376  39.169  21.406  1.00  0.00     0.001 A 
HETATM    6  C   LIG     1      17.644  38.018  21.711  1.00  0.00     0.010 A 
ENDROOT
BRANCH   1   7
HETATM    7  C   LIG     1      17.011  35.621  21.254  1.00  0.00     0.178 A 
HETATM    8  C   LIG     1      15.554  35.639  20.979  1.00  0.00     0.205 A 
HETATM    9  O   LIG     1      16.466  35.033  20.094  1.00  0.00    -0.376 OA
ENDBRANCH   1   7
TORSDOF 1
ENDMDL
MODEL 4
REMARK VINA RESULT:      -5.6      3.378      4.555
REMARK  1 active torsions:
REMARK  status: ('A' for Active; 'I' for Inactive)
REMARK    1  A    between atoms: C_1  and  C_2 
ROOT
HETATM    1  C   LIG     1      18.518  37.829  20.547  1.00  0.00    -0.027 A 
HETATM    2  C   LIG     1      18.152  38.756  21.534  1.00  0.00     0.010 A 
HETATM    3  C   LIG     1      17.211  38.410  22.510  1.00  0.00     0.001 A 
HETATM    4  C   LIG     1      16.637  37.135  22.508  1.00  0.00     0.000 A 
HETATM    5  C   LIG     1      17.008  36.202  21.535  1.00  0.00     0.001 A 
HETATM    6  C   LIG     1      17.949  36.544  20.559  1.00  0.00     0.010 A 
ENDROOT
BRANCH   1   7
HETATM    7  C   LIG     1      19.546  38.194  19.516  1.00  0.00     0.178 A 
HETATM    8  C   LIG     1      19.077  39.001  18.364  1.00  0.00     0.205 A 
HETATM    9  O   LIG     1      19.733  39.590  19.461  1.00  0.00    -0.376 OA
ENDBRANCH   1   7
TORSDOF 1
ENDMDL
MODEL 5
REMARK VINA RESULT:      -5.5      1.680      3.525
REMARK  1 active torsions:
REMARK  status: ('A' for Active; 'I' for Inactive)
REMARK    1  A    between atoms: C_1  and  C_2 
ROOT
HETATM    1  C   LIG     1      17.223  36.440  23.890  1.00  0.00    -0.027 A 
HETATM    2  C   LIG     1      17.340  37.606  23.118  1.00  0.00     0.010 A 
HETATM    3  C   LIG     1      17.314  37.530  21.722  1.00  0.00     0.001 A 
HETATM    4  C   LIG     1      17.163  36.292  21.090  1.00  0.00     0.000 A 
HETATM    5  C   LIG     1      17.033  35.128  21.855  1.00  0.00     0.001 A 
HETATM    6  C   LIG     1      17.058  35.200  23.251  1.00  0.00     0.010 A 
ENDROOT
BRANCH   1   7
HETATM    7  C   LIG     1      17.227  36.527  25.389  1.00  0.00     0.178 A 
HETATM    8  C   LIG     1      18.512  36.888  26.033  1.00  0.00     0.205 A 
HETATM    9  O   LIG     1      17.498  37.841  25.819  1.00  0.00    -0.376 OA
ENDBRANCH   1   7
TORSDOF 1
ENDMDL
MODEL 6
REMARK VINA RESULT:      -5.4      9.663     10.910
REMARK  1 active torsions:
REMARK  status: ('A' for Active; 'I' for Inactive)
REMARK    1  A    between atoms: C_1  and  C_2 
ROOT
HETATM    1  C   LIG     1      14.394  31.650  16.202  1.00  0.00    -0.027 A 
HETATM    2  C   LIG     1      15.461  31.661  15.291  1.00  0.00     0.010 A 
HETATM    3  C   LIG     1      15.478  30.765  14.217  1.00  0.00     0.001 A 
HETATM    4  C   LIG     1      14.426  29.859  14.044  1.00  0.00     0.000 A 
HETATM    5  C   LIG     1      13.354  29.853  14.942  1.00  0.00     0.001 A 
HETATM    6  C   LIG     1      13.334  30.748  16.016  1.00  0.00     0.010 A 
ENDROOT
BRANCH   1   7
HETATM    7  C   LIG     1      14.366  32.629  17.340  1.00  0.00     0.178 A 
HETATM    8  C   LIG     1      14.864  32.144  18.649  1.00  0.00     0.205 A 
HETATM    9  O   LIG     1      15.669  32.916  17.792  1.00  0.00    -0.376 OA
ENDBRANCH   1   7
TORSDOF 1
ENDMDL
MODEL 7
REMARK VINA RESULT:      -5.3      9.654     10.963
REMARK  1 active torsions:
REMARK  status: ('A' for Active; 'I' for Inactive)
REMARK    1  A    between atoms: C_1  and  C_2 
ROOT
HETATM    1  C   LIG     1      14.374  31.668  16.207  1.00  0.00    -0.027 A 
HETATM    2  C   LIG     1      13.327  30.749  16.037  1.00  0.00     0.010 A 
HETATM    3  C   LIG     1      13.349  29.848  14.968  1.00  0.00     0.001 A 
HETATM    4  C   LIG     1      14.420  29.855  14.068  1.00  0.00     0.000 A 
HETATM    5  C   LIG     1      15.473  30.759  14.241  1.00  0.00     0.001 A 
HETATM    6  C   LIG     1      15.454  31.660  15.310  1.00  0.00     0.010 A 
ENDROOT
BRANCH   1   7
HETATM    7  C   LIG     1      14.360  32.617  17.370  1.00  0.00     0.178 A 
HETATM    8  C   LIG     1      14.841  32.087  18.668  1.00  0.00     0.205 A 
HETATM    9  O   LIG     1      15.667  32.865  17.836  1.00  0.00    -0.376 OA
ENDBRANCH   1   7
TORSDOF 1
ENDMDL
MODEL 8
REMARK VINA RESULT:      -5.2      9.776     10.896
REMARK  1 active torsions:
REMARK  status: ('A' for Active; 'I' for Inactive)
REMARK    1  A    between atoms: C_1  and  C_2 
ROOT
HETATM    1  C   LIG     1      15.562  31.800  15.475  1.00  0.00    -0.027 A 
HETATM    2  C   LIG     1      14.744  32.254  16.521  1.00  0.00     0.010 A 
HETATM    3  C   LIG     1      13.488  31.676  16.733  1.00  0.00     0.001 A 
HETATM    4  C   LIG     1      13.046  30.638  15.907  1.00  0.00     0.000 A 
HETATM    5  C   LIG     1      13.862  30.172  14.871  1.00  0.00     0.001 A 
HETATM    6  C   LIG     1      15.119  30.747  14.657  1.00  0.00     0.010 A 
ENDROOT
BRANCH   1   7
HETATM    7  C   LIG     1      16.919  32.404  15.264  1.00  0.00     0.178 A 
HETATM    8  C   LIG     1      17.098  33.234  14.049  1.00  0.00     0.205 A 
HETATM    9  O   LIG     1      16.859  33.812  15.309  1.00  0.00    -0.376 OA
ENDBRANCH   1   7
TORSDOF 1
ENDMDL
MODEL 9
REMARK VINA RESULT:      -5.2      9.744     10.963
REMARK  1 active torsions:
REMARK  status: ('A' for Active; 'I' for Inactive)
REMARK    1  A    between atoms: C_1  and  C_2 
ROOT
HETATM    1  C   LIG     1      15.547  31.776  15.535  1.00  0.00    -0.027 A 
HETATM    2  C   LIG     1      15.078  30.748  14.703  1.00  0.00     0.010 A 
HETATM    3  C   LIG     1      13.811  30.195  14.916  1.00  0.00     0.001 A 
HETATM    4  C   LIG     1      13.004  30.671  15.954  1.00  0.00     0.000 A 
HETATM    5  C   LIG     1      13.461  31.706  16.777  1.00  0.00     0.001 A 
HETATM    6  C   LIG     1      14.726  32.261  16.567  1.00  0.00     0.010 A 
ENDROOT
BRANCH   1   7
HETATM    7  C   LIG     1      16.896  32.385  15.289  1.00  0.00     0.178 A 
HETATM    8  C   LIG     1      17.049  33.193  14.055  1.00  0.00     0.205 A 
HETATM    9  O   LIG     1      16.828  33.793  15.309  1.00  0.00    -0.376 OA
ENDBRANCH   1   7
TORSDOF 1
ENDMDL
MODEL 10
REMARK VINA RESULT:      -5.0      1.939      4.045
REMARK  1 active torsions:
REMARK  status: ('A' for Active; 'I' for Inactive)
REMARK    1  A    between atoms: C_1  and  C_2 
ROOT
HETATM    1  C   LIG     1      17.512  37.804  24.565  1.00  0.00    -0.027 A 
HETATM    2  C   LIG     1      16.322  37.639  23.839  1.00  0.00     0.010 A 
HETATM    3  C   LIG     1      16.227  38.117  22.528  1.00  0.00     0.001 A 
HETATM    4  C   LIG     1      17.321  38.752  21.933  1.00  0.00     0.000 A 
HETATM    5  C   LIG     1      18.514  38.907  22.647  1.00  0.00     0.001 A 
HETATM    6  C   LIG     1      18.612  38.430  23.958  1.00  0.00     0.010 A 
ENDROOT
BRANCH   1   7
HETATM    7  C   LIG     1      17.620  37.269  25.963  1.00  0.00     0.178 A 
HETATM    8  C   LIG     1      17.950  35.830  26.103  1.00  0.00     0.205 A 
HETATM    9  O   LIG     1      18.931  36.831  26.238  1.00  0.00    -0.376 OA
ENDBRANCH   1   7
TORSDOF 1
ENDMDL
MODEL 11
REMARK VINA RESULT:      -5.0     10.537     11.649
REMARK  1 active torsions:
REMARK  status: ('A' for Active; 'I' for Inactive)
REMARK    1  A    between atoms: C_1  and  C_2 
ROOT
HETATM    1  C   LIG     1      14.692  30.868  14.963  1.00  0.00    -0.027 A 
HETATM    2  C   LIG     1      13.631  30.756  15.874  1.00  0.00     0.010 A 
HETATM    3  C   LIG     1      13.553  31.621  16.971  1.00  0.00     0.001 A 
HETATM    4  C   LIG     1      14.528  32.606  17.158  1.00  0.00     0.000 A 
HETATM    5  C   LIG     1      15.580  32.730  16.245  1.00  0.00     0.001 A 
HETATM    6  C   LIG     1      15.661  31.868  15.147  1.00  0.00     0.010 A 
ENDROOT
BRANCH   1   7
HETATM    7  C   LIG     1      14.761  29.955  13.773  1.00  0.00     0.178 A 
HETATM    8  C   LIG     1      15.426  28.646  13.976  1.00  0.00     0.205 A 
HETATM    9  O   LIG     1      14.025  28.775  13.998  1.00  0.00    -0.376 OA
ENDBRANCH   1   7
TORSDOF 1
ENDMDL
MODEL 12
REMARK VINA RESULT:      -4.8      1.920      3.591
REMARK  1 active torsions:
REMARK  status: ('A' for Active; 'I' for Inactive)
REMARK    1  A    between atoms: C_1  and  C_2 
ROOT
HETATM    1  C   LIG     1      16.723  37.171  23.123  1.00  0.00    -0.027 A 
HETATM    2  C   LIG     1      15.500  37.415  22.480  1.00  0.00     0.010 A 
HETATM    3  C   LIG     1      14.912  36.422  21.690  1.00  0.00     0.001 A 
HETATM    4  C   LIG     1      15.537  35.180  21.544  1.00  0.00     0.000 A 
HETATM    5  C   LIG     1      16.750  34.927  22.194  1.00  0.00     0.001 A 
HETATM    6  C   LIG     1      17.340  35.916  22.986  1.00  0.00     0.010 A 
ENDROOT
BRANCH   1   7
HETATM    7  C   LIG     1      17.341  38.228  23.991  1.00  0.00     0.178 A 
HETATM    8  C   LIG     1      17.194  38.058  25.456  1.00  0.00     0.205 A 
HETATM    9  O   LIG     1      18.375  37.692  24.783  1.00  0.00    -0.376 OA
ENDBRANCH   1   7
TORSDOF 1
ENDMDL
MODEL 13
REMARK VINA RESULT:      -4.8     10.282     11.401
REMARK  1 active torsions:
REMARK  status: ('A' for Active; 'I' for Inactive)
REMARK    1  A    between atoms: C_1  and  C_2 
ROOT
HETATM    1  C   LIG     1      14.725  31.423  15.696  1.00  0.00    -0.027 A 
HETATM    2  C   LIG     1      15.658  32.462  15.552  1.00  0.00     0.010 A 
HETATM    3  C   LIG     1      16.417  32.567  14.383  1.00  0.00     0.001 A 
HETATM    4  C   LIG     1      16.244  31.643  13.348  1.00  0.00     0.000 A 
HETATM    5  C   LIG     1      15.306  30.614  13.480  1.00  0.00     0.001 A 
HETATM    6  C   LIG     1      14.544  30.505  14.648  1.00  0.00     0.010 A 
ENDROOT
BRANCH   1   7
HETATM    7  C   LIG     1      13.894  31.326  16.941  1.00  0.00     0.178 A 
HETATM    8  C   LIG     1      12.537  31.921  16.885  1.00  0.00     0.205 A 
HETATM    9  O   LIG     1      12.745  30.539  16.723  1.00  0.00    -0.376 OA
ENDBRANCH   1   7
TORSDOF 1
ENDMDL
MODEL 14
REMARK VINA RESULT:      -4.5      3.224      4.177
REMARK  1 active torsions:
REMARK  status: ('A' for Active; 'I' for Inactive)
REMARK    1  A    between atoms: C_1  and  C_2 
ROOT
HETATM    1  C   LIG     1      16.803  36.850  21.367  1.00  0.00    -0.027 A 
HETATM    2  C   LIG     1      16.465  37.517  22.555  1.00  0.00     0.010 A 
HETATM    3  C   LIG     1      17.226  38.606  22.991  1.00  0.00     0.001 A 
HETATM    4  C   LIG     1      18.323  39.040  22.239  1.00  0.00     0.000 A 
HETATM    5  C   LIG     1      18.656  38.388  21.048  1.00  0.00     0.001 A 
HETATM    6  C   LIG     1      17.897  37.299  20.609  1.00  0.00     0.010 A 
ENDROOT
BRANCH   1   7
HETATM    7  C   LIG     1      15.970  35.697  20.889  1.00  0.00     0.178 A 
HETATM    8  C   LIG     1      16.397  34.344  21.317  1.00  0.00     0.205 A 
HETATM    9  O   LIG     1      15.357  35.032  21.969  1.00  0.00    -0.376 OA
ENDBRANCH   1   7
TORSDOF 1
ENDMDL
MODEL 15
REMARK VINA RESULT:      -4.2     11.355     12.263
REMARK  1 active torsions:
REMARK  status: ('A' for Active; 'I' for Inactive)
REMARK    1  A    between atoms: C_1  and  C_2 
ROOT
HETATM    1  C   LIG     1      15.306  30.810  14.476  1.00  0.00    -0.027 A 
HETATM    2  C   LIG     1      14.159  31.127  15.219  1.00  0.00     0.010 A 
HETATM    3  C   LIG     1      13.067  30.253  15.234  1.00  0.00     0.001 A 
HETATM    4  C   LIG     1      13.118  29.055  14.514  1.00  0.00     0.000 A 
HETATM    5  C   LIG     1      14.264  28.728  13.783  1.00  0.00     0.001 A 
HETATM    6  C   LIG     1      15.358  29.599  13.766  1.00  0.00     0.010 A 
ENDROOT
BRANCH   1   7
HETATM    7  C   LIG     1      16.486  31.737  14.481  1.00  0.00     0.178 A 
HETATM    8  C   LIG     1      16.438  32.882  13.540  1.00  0.00     0.205 A 
HETATM    9  O   LIG     1      16.112  33.029  14.901  1.00  0.00    -0.376 OA
ENDBRANCH   1   7
TORSDOF 1
ENDMDL
MODEL 16
REMARK VINA RESULT:      -3.8     10.672     11.915
REMARK  1 active torsions:
REMARK  status: ('A' for Active; 'I' for Inactive)
REMARK    1  A    between atoms: C_1  and  C_2 
ROOT
HETATM    1  C   LIG     1      15.239  31.249  14.882  1.00  0.00    -0.027 A 
HETATM    2  C   LIG     1      15.636  31.337  13.539  1.00  0.00     0.010 A 
HETATM    3  C   LIG     1      16.514  32.346  13.130  1.00  0.00     0.001 A 
HETATM    4  C   LIG     1      17.006  33.266  14.061  1.00  0.00     0.000 A 
HETATM    5  C   LIG     1      16.625  33.175  15.403  1.00  0.00     0.001 A 
HETATM    6  C   LIG     1      15.747  32.168  15.816  1.00  0.00     0.010 A 
ENDROOT
BRANCH   1   7
HETATM    7  C   LIG     1      14.316  30.151  15.323  1.00  0.00     0.178 A 
HETATM    8  C   LIG     1      12.922  30.212  14.825  1.00  0.00     0.205 A 
HETATM    9  O   LIG     1      13.885  29.380  14.225  1.00  0.00    -0.376 OA
ENDBRANCH   1   7
TORSDOF 1
ENDMDL
MODEL 17
REMARK VINA RESULT:      -3.4     10.435     11.677
REMARK  1 active torsions:
REMARK  status: ('A' for Active; 'I' for Inactive)
REMARK    1  A    between atoms: C_1  and  C_2 
ROOT
HETATM    1  C   LIG     1      16.107  32.108  14.537  1.00  0.00    -0.027 A 
HETATM    2  C   LIG     1      16.358  33.031  15.563  1.00  0.00     0.010 A 
HETATM    3  C   LIG     1      17.193  34.129  15.332  1.00  0.00     0.001 A 
HETATM    4  C   LIG     1      17.773  34.316  14.073  1.00  0.00     0.000 A 
HETATM    5  C   LIG     1      17.515  33.406  13.043  1.00  0.00     0.001 A 
HETATM    6  C   LIG     1      16.681  32.307  13.270  1.00  0.00     0.010 A 
ENDROOT
BRANCH   1   7
HETATM    7  C   LIG     1      15.192  30.943  14.780  1.00  0.00     0.178 A 
HETATM    8  C   LIG     1      14.852  30.107  13.604  1.00  0.00     0.205 A 
HETATM    9  O   LIG     1      15.848  29.723  14.522  1.00  0.00    -0.376 OA
ENDBRANCH   1   7
TORSDOF 1
ENDMDL
