REMARK  1 active torsions:
REMARK  status: ('A' for Active; 'I' for Inactive)
REMARK    1  A    between atoms: C_1  and  C_2 
ROOT
HETATM    1  C   LIG     1      -0.258   0.081  -0.301  1.00  0.00    -0.027 A 
HETATM    2  C   LIG     1       0.541   1.231  -0.391  1.00  0.00     0.010 A 
HETATM    3  C   LIG     1       1.909   1.160  -0.109  1.00  0.00     0.001 A 
HETATM    4  C   LIG     1       2.487  -0.060   0.256  1.00  0.00     0.000 A 
HETATM    5  C   LIG     1       1.698  -1.212   0.334  1.00  0.00     0.001 A 
HETATM    6  C   LIG     1       0.330  -1.145   0.052  1.00  0.00     0.010 A 
ENDROOT
BRANCH   1   7
HETATM    7  C   LIG     1      -1.721   0.154  -0.628  1.00  0.00     0.178 A 
HETATM    8  C   LIG     1      -2.663  -0.280   0.431  1.00  0.00     0.205 A 
HETATM    9  O   LIG     1      -2.380   1.080   0.205  1.00  0.00    -0.376 OA
ENDBRANCH   1   7
TORSDOF 1
