MODEL 1
REMARK VINA RESULT:      -4.5      0.000      0.000
REMARK  2 active torsions:
REMARK  status: ('A' for Active; 'I' for Inactive)
REMARK    1  A    between atoms: C_2  and  C_5 
REMARK    2  A    between atoms: C_2  and  C_3 
ROOT
HETATM    1  C   LIG     1      18.093  37.458  25.355  1.00  0.00     0.010 C 
HETATM    2  C   LIG     1      17.089  36.464  24.745  1.00  0.00    -0.019 C 
ENDROOT
BRANCH   2   3
HETATM    3  C   LIG     1      17.004  36.601  23.206  1.00  0.00    -0.000 C 
HETATM    4  C   LIG     1      16.905  35.249  22.500  1.00  0.00     0.005 C 
ENDBRANCH   2   3
BRANCH   2   5
HETATM    5  C   LIG     1      17.392  35.010  25.177  1.00  0.00    -0.000 C 
HETATM    6  C   LIG     1      18.362  34.887  26.355  1.00  0.00     0.005 C 
ENDBRANCH   2   5
TORSDOF 2
ENDMDL
MODEL 2
REMARK VINA RESULT:      -4.4      0.443      2.875
REMARK  2 active torsions:
REMARK  status: ('A' for Active; 'I' for Inactive)
REMARK    1  A    between atoms: C_2  and  C_5 
REMARK    2  A    between atoms: C_2  and  C_3 
ROOT
HETATM    1  C   LIG     1      17.257  37.742  25.381  1.00  0.00     0.010 C 
HETATM    2  C   LIG     1      17.568  36.503  24.524  1.00  0.00    -0.019 C 
ENDROOT
BRANCH   2   3
HETATM    3  C   LIG     1      17.296  35.187  25.292  1.00  0.00    -0.000 C 
HETATM    4  C   LIG     1      18.355  34.897  26.356  1.00  0.00     0.005 C 
ENDBRANCH   2   3
BRANCH   2   5
HETATM    5  C   LIG     1      16.820  36.543  23.170  1.00  0.00    -0.000 C 
HETATM    6  C   LIG     1      16.941  35.262  22.340  1.00  0.00     0.005 C 
ENDBRANCH   2   5
TORSDOF 2
ENDMDL
MODEL 3
REMARK VINA RESULT:      -4.4      1.161      3.386
REMARK  2 active torsions:
REMARK  status: ('A' for Active; 'I' for Inactive)
REMARK    1  A    between atoms: C_2  and  C_5 
REMARK    2  A    between atoms: C_2  and  C_3 
ROOT
HETATM    1  C   LIG     1      17.136  35.760  24.023  1.00  0.00     0.010 C 
HETATM    2  C   LIG     1      17.352  36.857  25.081  1.00  0.00    -0.019 C 
ENDROOT
BRANCH   2   3
HETATM    3  C   LIG     1      18.274  36.379  26.228  1.00  0.00    -0.000 C 
HETATM    4  C   LIG     1      18.319  34.856  26.352  1.00  0.00     0.005 C 
ENDBRANCH   2   3
BRANCH   2   5
HETATM    5  C   LIG     1      17.861  38.172  24.444  1.00  0.00    -0.000 C 
HETATM    6  C   LIG     1      17.454  38.367  22.981  1.00  0.00     0.005 C 
ENDBRANCH   2   5
TORSDOF 2
ENDMDL
MODEL 4
REMARK VINA RESULT:      -4.2      1.171      2.485
REMARK  2 active torsions:
REMARK  status: ('A' for Active; 'I' for Inactive)
REMARK    1  A    between atoms: C_2  and  C_5 
REMARK    2  A    between atoms: C_2  and  C_3 
ROOT
HETATM    1  C   LIG     1      18.388  36.210  26.888  1.00  0.00     0.010 C 
HETATM    2  C   LIG     1      17.996  36.316  25.404  1.00  0.00    -0.019 C 
ENDROOT
BRANCH   2   3
HETATM    3  C   LIG     1      17.290  35.034  24.900  1.00  0.00    -0.000 C 
HETATM    4  C   LIG     1      17.039  35.054  23.392  1.00  0.00     0.005 C 
ENDBRANCH   2   3
BRANCH   2   5
HETATM    5  C   LIG     1      17.154  37.584  25.126  1.00  0.00    -0.000 C 
HETATM    6  C   LIG     1      17.691  38.466  23.995  1.00  0.00     0.005 C 
ENDBRANCH   2   5
TORSDOF 2
ENDMDL
MODEL 5
REMARK VINA RESULT:      -4.1      3.619      5.063
REMARK  2 active torsions:
REMARK  status: ('A' for Active; 'I' for Inactive)
REMARK    1  A    between atoms: C_2  and  C_5 
REMARK    2  A    between atoms: C_2  and  C_3 
ROOT
HETATM    1  C   LIG     1      17.226  38.696  22.006  1.00  0.00     0.010 C 
HETATM    2  C   LIG     1      18.442  38.192  21.209  1.00  0.00    -0.019 C 
ENDROOT
BRANCH   2   3
HETATM    3  C   LIG     1      18.116  36.907  20.410  1.00  0.00    -0.000 C 
HETATM    4  C   LIG     1      17.238  35.932  21.194  1.00  0.00     0.005 C 
ENDBRANCH   2   3
BRANCH   2   5
HETATM    5  C   LIG     1      19.029  39.299  20.302  1.00  0.00    -0.000 C 
HETATM    6  C   LIG     1      20.241  38.865  19.474  1.00  0.00     0.005 C 
ENDBRANCH   2   5
TORSDOF 2
ENDMDL
MODEL 6
REMARK VINA RESULT:      -4.1      3.640      5.415
REMARK  2 active torsions:
REMARK  status: ('A' for Active; 'I' for Inactive)
REMARK    1  A    between atoms: C_2  and  C_5 
REMARK    2  A    between atoms: C_2  and  C_3 
ROOT
HETATM    1  C   LIG     1      18.528  36.761  19.998  1.00  0.00     0.010 C 
HETATM    2  C   LIG     1      18.169  38.098  20.670  1.00  0.00    -0.019 C 
ENDROOT
BRANCH   2   3
HETATM    3  C   LIG     1      17.678  37.900  22.124  1.00  0.00    -0.000 C 
HETATM    4  C   LIG     1      16.722  39.004  22.578  1.00  0.00     0.005 C 
ENDBRANCH   2   3
BRANCH   2   5
HETATM    5  C   LIG     1      19.338  39.108  20.590  1.00  0.00    -0.000 C 
HETATM    6  C   LIG     1      20.333  38.839  19.458  1.00  0.00     0.005 C 
ENDBRANCH   2   5
TORSDOF 2
ENDMDL
MODEL 7
REMARK VINA RESULT:      -4.0      2.023      2.716
REMARK  2 active torsions:
REMARK  status: ('A' for Active; 'I' for Inactive)
REMARK    1  A    between atoms: C_2  and  C_5 
REMARK    2  A    between atoms: C_2  and  C_3 
ROOT
HETATM    1  C   LIG     1      17.929  38.877  22.087  1.00  0.00     0.010 C 
HETATM    2  C   LIG     1      16.888  37.769  22.322  1.00  0.00    -0.019 C 
ENDROOT
BRANCH   2   3
HETATM    3  C   LIG     1      17.171  36.518  21.456  1.00  0.00    -0.000 C 
HETATM    4  C   LIG     1      16.949  35.211  22.217  1.00  0.00     0.005 C 
ENDBRANCH   2   3
BRANCH   2   5
HETATM    5  C   LIG     1      16.763  37.412  23.822  1.00  0.00    -0.000 C 
HETATM    6  C   LIG     1      17.856  38.013  24.711  1.00  0.00     0.005 C 
ENDBRANCH   2   5
TORSDOF 2
ENDMDL
MODEL 8
REMARK VINA RESULT:      -4.0      2.291      3.629
REMARK  2 active torsions:
REMARK  status: ('A' for Active; 'I' for Inactive)
REMARK    1  A    between atoms: C_2  and  C_5 
REMARK    2  A    between atoms: C_2  and  C_3 
ROOT
HETATM    1  C   LIG     1      16.904  37.528  23.795  1.00  0.00     0.010 C 
HETATM    2  C   LIG     1      17.082  37.940  22.323  1.00  0.00    -0.019 C 
ENDROOT
BRANCH   2   3
HETATM    3  C   LIG     1      18.234  38.958  22.143  1.00  0.00    -0.000 C 
HETATM    4  C   LIG     1      18.642  39.133  20.680  1.00  0.00     0.005 C 
ENDBRANCH   2   3
BRANCH   2   5
HETATM    5  C   LIG     1      17.254  36.708  21.403  1.00  0.00    -0.000 C 
HETATM    6  C   LIG     1      16.991  35.364  22.087  1.00  0.00     0.005 C 
ENDBRANCH   2   5
TORSDOF 2
ENDMDL
MODEL 9
REMARK VINA RESULT:      -4.0      2.598      4.469
REMARK  2 active torsions:
REMARK  status: ('A' for Active; 'I' for Inactive)
REMARK    1  A    between atoms: C_2  and  C_5 
REMARK    2  A    between atoms: C_2  and  C_3 
ROOT
HETATM    1  C   LIG     1      18.895  36.842  19.775  1.00  0.00     0.010 C 
HETATM    2  C   LIG     1      17.623  36.893  20.639  1.00  0.00    -0.019 C 
ENDROOT
BRANCH   2   3
HETATM    3  C   LIG     1      17.275  35.509  21.237  1.00  0.00    -0.000 C 
HETATM    4  C   LIG     1      16.922  35.581  22.723  1.00  0.00     0.005 C 
ENDBRANCH   2   3
BRANCH   2   5
HETATM    5  C   LIG     1      17.721  37.983  21.733  1.00  0.00    -0.000 C 
HETATM    6  C   LIG     1      18.509  39.229  21.319  1.00  0.00     0.005 C 
ENDBRANCH   2   5
TORSDOF 2
ENDMDL
MODEL 10
REMARK VINA RESULT:      -4.0      1.583      3.254
REMARK  2 active torsions:
REMARK  status: ('A' for Active; 'I' for Inactive)
REMARK    1  A    between atoms: C_2  and  C_5 
REMARK    2  A    between atoms: C_2  and  C_3 
ROOT
HETATM    1  C   LIG     1      17.298  38.995  22.353  1.00  0.00     0.010 C 
HETATM    2  C   LIG     1      17.299  37.624  23.051  1.00  0.00    -0.019 C 
ENDROOT
BRANCH   2   3
HETATM    3  C   LIG     1      16.890  37.733  24.540  1.00  0.00    -0.000 C 
HETATM    4  C   LIG     1      17.992  37.264  25.489  1.00  0.00     0.005 C 
ENDBRANCH   2   3
BRANCH   2   5
HETATM    5  C   LIG     1      16.428  36.595  22.291  1.00  0.00    -0.000 C 
HETATM    6  C   LIG     1      16.960  35.160  22.330  1.00  0.00     0.005 C 
ENDBRANCH   2   5
TORSDOF 2
ENDMDL
MODEL 11
REMARK VINA RESULT:      -4.0      3.769      5.131
REMARK  2 active torsions:
REMARK  status: ('A' for Active; 'I' for Inactive)
REMARK    1  A    between atoms: C_2  and  C_5 
REMARK    2  A    between atoms: C_2  and  C_3 
ROOT
HETATM    1  C   LIG     1      17.428  36.500  20.788  1.00  0.00     0.010 C 
HETATM    2  C   LIG     1      18.476  37.626  20.789  1.00  0.00    -0.019 C 
ENDROOT
BRANCH   2   3
HETATM    3  C   LIG     1      19.131  37.807  19.399  1.00  0.00    -0.000 C 
HETATM    4  C   LIG     1      20.271  38.826  19.413  1.00  0.00     0.005 C 
ENDBRANCH   2   3
BRANCH   2   5
HETATM    5  C   LIG     1      17.887  38.953  21.324  1.00  0.00    -0.000 C 
HETATM    6  C   LIG     1      16.933  38.790  22.511  1.00  0.00     0.005 C 
ENDBRANCH   2   5
TORSDOF 2
ENDMDL
MODEL 12
REMARK VINA RESULT:      -3.9      1.643      2.663
REMARK  2 active torsions:
REMARK  status: ('A' for Active; 'I' for Inactive)
REMARK    1  A    between atoms: C_2  and  C_5 
REMARK    2  A    between atoms: C_2  and  C_3 
ROOT
HETATM    1  C   LIG     1      17.791  37.919  24.791  1.00  0.00     0.010 C 
HETATM    2  C   LIG     1      16.855  37.281  23.749  1.00  0.00    -0.019 C 
ENDROOT
BRANCH   2   3
HETATM    3  C   LIG     1      16.935  38.004  22.383  1.00  0.00    -0.000 C 
HETATM    4  C   LIG     1      18.168  38.898  22.260  1.00  0.00     0.005 C 
ENDBRANCH   2   3
BRANCH   2   5
HETATM    5  C   LIG     1      17.108  35.761  23.611  1.00  0.00    -0.000 C 
HETATM    6  C   LIG     1      16.948  35.218  22.188  1.00  0.00     0.005 C 
ENDBRANCH   2   5
TORSDOF 2
ENDMDL
MODEL 13
REMARK VINA RESULT:      -3.9      1.839      3.919
REMARK  2 active torsions:
REMARK  status: ('A' for Active; 'I' for Inactive)
REMARK    1  A    between atoms: C_2  and  C_5 
REMARK    2  A    between atoms: C_2  and  C_3 
ROOT
HETATM    1  C   LIG     1      16.912  36.034  22.978  1.00  0.00     0.010 C 
HETATM    2  C   LIG     1      16.979  37.570  22.925  1.00  0.00    -0.019 C 
ENDROOT
BRANCH   2   3
HETATM    3  C   LIG     1      17.703  38.160  24.159  1.00  0.00    -0.000 C 
HETATM    4  C   LIG     1      17.569  37.276  25.399  1.00  0.00     0.005 C 
ENDBRANCH   2   3
BRANCH   2   5
HETATM    5  C   LIG     1      17.603  38.069  21.600  1.00  0.00    -0.000 C 
HETATM    6  C   LIG     1      18.646  39.177  21.767  1.00  0.00     0.005 C 
ENDBRANCH   2   5
TORSDOF 2
ENDMDL
MODEL 14
REMARK VINA RESULT:      -3.9      2.189      3.537
REMARK  2 active torsions:
REMARK  status: ('A' for Active; 'I' for Inactive)
REMARK    1  A    between atoms: C_2  and  C_5 
REMARK    2  A    between atoms: C_2  and  C_3 
ROOT
HETATM    1  C   LIG     1      17.151  37.995  24.596  1.00  0.00     0.010 C 
HETATM    2  C   LIG     1      17.464  37.627  23.136  1.00  0.00    -0.019 C 
ENDROOT
BRANCH   2   3
HETATM    3  C   LIG     1      16.683  36.373  22.676  1.00  0.00    -0.000 C 
HETATM    4  C   LIG     1      17.179  35.828  21.337  1.00  0.00     0.005 C 
ENDBRANCH   2   3
BRANCH   2   5
HETATM    5  C   LIG     1      17.236  38.826  22.184  1.00  0.00    -0.000 C 
HETATM    6  C   LIG     1      18.504  39.338  21.495  1.00  0.00     0.005 C 
ENDBRANCH   2   5
TORSDOF 2
ENDMDL
MODEL 15
REMARK VINA RESULT:      -3.9      2.623      4.367
REMARK  2 active torsions:
REMARK  status: ('A' for Active; 'I' for Inactive)
REMARK    1  A    between atoms: C_2  and  C_5 
REMARK    2  A    between atoms: C_2  and  C_3 
ROOT
HETATM    1  C   LIG     1      18.301  39.107  21.259  1.00  0.00     0.010 C 
HETATM    2  C   LIG     1      17.836  37.736  21.780  1.00  0.00    -0.019 C 
ENDROOT
BRANCH   2   3
HETATM    3  C   LIG     1      16.475  37.827  22.511  1.00  0.00    -0.000 C 
HETATM    4  C   LIG     1      16.600  37.598  24.017  1.00  0.00     0.005 C 
ENDBRANCH   2   3
BRANCH   2   5
HETATM    5  C   LIG     1      17.813  36.676  20.653  1.00  0.00    -0.000 C 
HETATM    6  C   LIG     1      18.873  36.882  19.567  1.00  0.00     0.005 C 
ENDBRANCH   2   5
TORSDOF 2
ENDMDL
MODEL 16
REMARK VINA RESULT:      -3.8     10.665     12.002
REMARK  2 active torsions:
REMARK  status: ('A' for Active; 'I' for Inactive)
REMARK    1  A    between atoms: C_2  and  C_5 
REMARK    2  A    between atoms: C_2  and  C_3 
ROOT
HETATM    1  C   LIG     1      15.328  28.885  13.972  1.00  0.00     0.010 C 
HETATM    2  C   LIG     1      14.564  30.208  14.154  1.00  0.00    -0.019 C 
ENDROOT
BRANCH   2   3
HETATM    3  C   LIG     1      13.303  30.032  15.032  1.00  0.00    -0.000 C 
HETATM    4  C   LIG     1      13.348  30.877  16.305  1.00  0.00     0.005 C 
ENDBRANCH   2   3
BRANCH   2   5
HETATM    5  C   LIG     1      15.486  31.330  14.690  1.00  0.00    -0.000 C 
HETATM    6  C   LIG     1      16.147  32.182  13.603  1.00  0.00     0.005 C 
ENDBRANCH   2   5
TORSDOF 2
ENDMDL
MODEL 17
REMARK VINA RESULT:      -3.8     10.415     11.872
REMARK  2 active torsions:
REMARK  status: ('A' for Active; 'I' for Inactive)
REMARK    1  A    between atoms: C_2  and  C_5 
REMARK    2  A    between atoms: C_2  and  C_3 
ROOT
HETATM    1  C   LIG     1      15.807  31.698  13.805  1.00  0.00     0.010 C 
HETATM    2  C   LIG     1      15.225  30.680  14.800  1.00  0.00    -0.019 C 
ENDROOT
BRANCH   2   3
HETATM    3  C   LIG     1      14.378  31.365  15.899  1.00  0.00    -0.000 C 
HETATM    4  C   LIG     1      13.011  30.707  16.085  1.00  0.00     0.005 C 
ENDBRANCH   2   3
BRANCH   2   5
HETATM    5  C   LIG     1      14.433  29.564  14.077  1.00  0.00    -0.000 C 
HETATM    6  C   LIG     1      15.255  28.314  13.750  1.00  0.00     0.005 C 
ENDBRANCH   2   5
TORSDOF 2
ENDMDL
MODEL 18
REMARK VINA RESULT:      -3.8      2.231      3.537
REMARK  2 active torsions:
REMARK  status: ('A' for Active; 'I' for Inactive)
REMARK    1  A    between atoms: C_2  and  C_5 
REMARK    2  A    between atoms: C_2  and  C_3 
ROOT
HETATM    1  C   LIG     1      15.804  36.915  22.232  1.00  0.00     0.010 C 
HETATM    2  C   LIG     1      17.225  37.427  22.524  1.00  0.00    -0.019 C 
ENDROOT
BRANCH   2   3
HETATM    3  C   LIG     1      17.945  37.900  21.239  1.00  0.00    -0.000 C 
HETATM    4  C   LIG     1      18.536  39.303  21.377  1.00  0.00     0.005 C 
ENDBRANCH   2   3
BRANCH   2   5
HETATM    5  C   LIG     1      17.224  38.521  23.618  1.00  0.00    -0.000 C 
HETATM    6  C   LIG     1      17.381  37.991  25.046  1.00  0.00     0.005 C 
ENDBRANCH   2   5
TORSDOF 2
ENDMDL
MODEL 19
REMARK VINA RESULT:      -3.7     10.800     12.312
REMARK  2 active torsions:
REMARK  status: ('A' for Active; 'I' for Inactive)
REMARK    1  A    between atoms: C_2  and  C_5 
REMARK    2  A    between atoms: C_2  and  C_3 
ROOT
HETATM    1  C   LIG     1      15.525  31.305  14.450  1.00  0.00     0.010 C 
HETATM    2  C   LIG     1      14.668  30.105  14.012  1.00  0.00    -0.019 C 
ENDROOT
BRANCH   2   3
HETATM    3  C   LIG     1      15.480  28.787  14.004  1.00  0.00    -0.000 C 
HETATM    4  C   LIG     1      14.637  27.579  13.595  1.00  0.00     0.005 C 
ENDBRANCH   2   3
BRANCH   2   5
HETATM    5  C   LIG     1      13.382  29.982  14.864  1.00  0.00    -0.000 C 
HETATM    6  C   LIG     1      13.389  30.817  16.148  1.00  0.00     0.005 C 
ENDBRANCH   2   5
TORSDOF 2
ENDMDL
MODEL 20
REMARK VINA RESULT:      -3.6      8.804     10.744
REMARK  2 active torsions:
REMARK  status: ('A' for Active; 'I' for Inactive)
REMARK    1  A    between atoms: C_2  and  C_5 
REMARK    2  A    between atoms: C_2  and  C_3 
ROOT
HETATM    1  C   LIG     1      12.901  31.428  16.550  1.00  0.00     0.010 C 
HETATM    2  C   LIG     1      14.244  30.938  15.983  1.00  0.00    -0.019 C 
ENDROOT
BRANCH   2   3
HETATM    3  C   LIG     1      14.057  30.108  14.690  1.00  0.00    -0.000 C 
HETATM    4  C   LIG     1      15.212  30.285  13.704  1.00  0.00     0.005 C 
ENDBRANCH   2   3
BRANCH   2   5
HETATM    5  C   LIG     1      15.237  32.107  15.777  1.00  0.00    -0.000 C 
HETATM    6  C   LIG     1      15.017  33.298  16.713  1.00  0.00     0.005 C 
ENDBRANCH   2   5
TORSDOF 2
ENDMDL
