MODEL 1
REMARK VINA RESULT:      -3.8      0.000      0.000
REMARK  2 active torsions:
REMARK  status: ('A' for Active; 'I' for Inactive)
REMARK    1  A    between atoms: C_2  and  C_3 
REMARK    2  A    between atoms: C_2  and  C_5 
ROOT
HETATM    1 BR   LIG     1      17.266  38.118  22.417  1.00  0.00    -0.089 Br
HETATM    2  C   LIG     1      16.773  37.199  24.059  1.00  0.00     0.081 C 
ENDROOT
BRANCH   2   3
HETATM    3  C   LIG     1      17.100  35.705  23.897  1.00  0.00     0.131 C 
HETATM    4 CL   LIG     1      17.070  35.188  22.190  1.00  0.00    -0.129 Cl
ENDBRANCH   2   3
BRANCH   2   5
HETATM    5  C   LIG     1      17.520  37.854  25.232  1.00  0.00     0.102 C 
HETATM    6 BR   LIG     1      18.327  36.548  26.421  1.00  0.00    -0.095 Br
ENDBRANCH   2   5
TORSDOF 2
ENDMDL
MODEL 2
REMARK VINA RESULT:      -3.8      2.563      3.571
REMARK  2 active torsions:
REMARK  status: ('A' for Active; 'I' for Inactive)
REMARK    1  A    between atoms: C_2  and  C_3 
REMARK    2  A    between atoms: C_2  and  C_5 
ROOT
HETATM    1 BR   LIG     1      17.316  35.026  24.884  1.00  0.00    -0.089 Br
HETATM    2  C   LIG     1      16.824  36.858  24.454  1.00  0.00     0.081 C 
ENDROOT
BRANCH   2   3
HETATM    3  C   LIG     1      17.644  37.805  25.347  1.00  0.00     0.131 C 
HETATM    4 CL   LIG     1      18.655  36.920  26.519  1.00  0.00    -0.129 Cl
ENDBRANCH   2   3
BRANCH   2   5
HETATM    5  C   LIG     1      17.062  37.092  22.953  1.00  0.00     0.102 C 
HETATM    6 BR   LIG     1      16.908  35.460  21.913  1.00  0.00    -0.095 Br
ENDBRANCH   2   5
TORSDOF 2
ENDMDL
MODEL 3
REMARK VINA RESULT:      -3.7      2.312      2.854
REMARK  2 active torsions:
REMARK  status: ('A' for Active; 'I' for Inactive)
REMARK    1  A    between atoms: C_2  and  C_3 
REMARK    2  A    between atoms: C_2  and  C_5 
ROOT
HETATM    1 BR   LIG     1      16.909  35.833  22.611  1.00  0.00    -0.089 Br
HETATM    2  C   LIG     1      16.823  37.189  24.003  1.00  0.00     0.081 C 
ENDROOT
BRANCH   2   3
HETATM    3  C   LIG     1      17.495  36.631  25.268  1.00  0.00     0.131 C 
HETATM    4 CL   LIG     1      17.451  34.849  25.327  1.00  0.00    -0.129 Cl
ENDBRANCH   2   3
BRANCH   2   5
HETATM    5  C   LIG     1      17.493  38.471  23.482  1.00  0.00     0.102 C 
HETATM    6 BR   LIG     1      17.876  38.391  21.580  1.00  0.00    -0.095 Br
ENDBRANCH   2   5
TORSDOF 2
ENDMDL
MODEL 4
REMARK VINA RESULT:      -3.7      2.214      2.493
REMARK  2 active torsions:
REMARK  status: ('A' for Active; 'I' for Inactive)
REMARK    1  A    between atoms: C_2  and  C_3 
REMARK    2  A    between atoms: C_2  and  C_5 
ROOT
HETATM    1 BR   LIG     1      17.716  37.858  25.312  1.00  0.00    -0.089 Br
HETATM    2  C   LIG     1      16.775  36.701  24.063  1.00  0.00     0.081 C 
ENDROOT
BRANCH   2   3
HETATM    3  C   LIG     1      17.076  37.182  22.634  1.00  0.00     0.131 C 
HETATM    4 CL   LIG     1      16.741  38.921  22.422  1.00  0.00    -0.129 Cl
ENDBRANCH   2   3
BRANCH   2   5
HETATM    5  C   LIG     1      17.214  35.249  24.313  1.00  0.00     0.102 C 
HETATM    6 BR   LIG     1      17.876  34.972  26.117  1.00  0.00    -0.095 Br
ENDBRANCH   2   5
TORSDOF 2
ENDMDL
MODEL 5
REMARK VINA RESULT:      -3.6      2.427      2.642
REMARK  2 active torsions:
REMARK  status: ('A' for Active; 'I' for Inactive)
REMARK    1  A    between atoms: C_2  and  C_3 
REMARK    2  A    between atoms: C_2  and  C_5 
ROOT
HETATM    1 BR   LIG     1      18.318  38.812  21.810  1.00  0.00    -0.089 Br
HETATM    2  C   LIG     1      17.068  37.322  21.763  1.00  0.00     0.081 C 
ENDROOT
BRANCH   2   3
HETATM    3  C   LIG     1      17.605  36.267  20.782  1.00  0.00     0.131 C 
HETATM    4 CL   LIG     1      18.937  36.895  19.777  1.00  0.00    -0.129 Cl
ENDBRANCH   2   3
BRANCH   2   5
HETATM    5  C   LIG     1      16.894  36.781  23.192  1.00  0.00     0.102 C 
HETATM    6 BR   LIG     1      17.531  38.024  24.541  1.00  0.00    -0.095 Br
ENDBRANCH   2   5
TORSDOF 2
ENDMDL
MODEL 6
REMARK VINA RESULT:      -3.6      2.283      2.480
REMARK  2 active torsions:
REMARK  status: ('A' for Active; 'I' for Inactive)
REMARK    1  A    between atoms: C_2  and  C_3 
REMARK    2  A    between atoms: C_2  and  C_5 
ROOT
HETATM    1 BR   LIG     1      16.743  35.510  22.441  1.00  0.00    -0.089 Br
HETATM    2  C   LIG     1      17.429  37.065  23.387  1.00  0.00     0.081 C 
ENDROOT
BRANCH   2   3
HETATM    3  C   LIG     1      16.856  38.329  22.725  1.00  0.00     0.131 C 
HETATM    4 CL   LIG     1      18.032  39.117  21.640  1.00  0.00    -0.129 Cl
ENDBRANCH   2   3
BRANCH   2   5
HETATM    5  C   LIG     1      17.055  36.942  24.873  1.00  0.00     0.102 C 
HETATM    6 BR   LIG     1      17.626  35.255  25.646  1.00  0.00    -0.095 Br
ENDBRANCH   2   5
TORSDOF 2
ENDMDL
MODEL 7
REMARK VINA RESULT:      -3.5      2.913      3.676
REMARK  2 active torsions:
REMARK  status: ('A' for Active; 'I' for Inactive)
REMARK    1  A    between atoms: C_2  and  C_3 
REMARK    2  A    between atoms: C_2  and  C_5 
ROOT
HETATM    1 BR   LIG     1      16.814  35.243  22.161  1.00  0.00    -0.089 Br
HETATM    2  C   LIG     1      16.619  37.153  22.474  1.00  0.00     0.081 C 
ENDROOT
BRANCH   2   3
HETATM    3  C   LIG     1      16.703  37.409  23.988  1.00  0.00     0.131 C 
HETATM    4 CL   LIG     1      18.247  38.165  24.461  1.00  0.00    -0.129 Cl
ENDBRANCH   2   3
BRANCH   2   5
HETATM    5  C   LIG     1      17.705  37.896  21.678  1.00  0.00     0.102 C 
HETATM    6 BR   LIG     1      18.389  36.846  20.195  1.00  0.00    -0.095 Br
ENDBRANCH   2   5
TORSDOF 2
ENDMDL
MODEL 8
REMARK VINA RESULT:      -3.5      3.084      3.775
REMARK  2 active torsions:
REMARK  status: ('A' for Active; 'I' for Inactive)
REMARK    1  A    between atoms: C_2  and  C_3 
REMARK    2  A    between atoms: C_2  and  C_5 
ROOT
HETATM    1 BR   LIG     1      16.963  37.522  24.056  1.00  0.00    -0.089 Br
HETATM    2  C   LIG     1      17.137  38.123  22.214  1.00  0.00     0.081 C 
ENDROOT
BRANCH   2   3
HETATM    3  C   LIG     1      18.256  39.175  22.148  1.00  0.00     0.131 C 
HETATM    4 CL   LIG     1      18.983  39.288  20.524  1.00  0.00    -0.129 Cl
ENDBRANCH   2   3
BRANCH   2   5
HETATM    5  C   LIG     1      17.408  36.901  21.321  1.00  0.00     0.102 C 
HETATM    6 BR   LIG     1      16.863  35.235  22.156  1.00  0.00    -0.095 Br
ENDBRANCH   2   5
TORSDOF 2
ENDMDL
MODEL 9
REMARK VINA RESULT:      -3.3     11.761     12.347
REMARK  2 active torsions:
REMARK  status: ('A' for Active; 'I' for Inactive)
REMARK    1  A    between atoms: C_2  and  C_3 
REMARK    2  A    between atoms: C_2  and  C_5 
ROOT
HETATM    1 BR   LIG     1      15.310  27.863  13.550  1.00  0.00    -0.089 Br
HETATM    2  C   LIG     1      14.932  29.588  14.366  1.00  0.00     0.081 C 
ENDROOT
BRANCH   2   3
HETATM    3  C   LIG     1      15.408  30.693  13.409  1.00  0.00     0.131 C 
HETATM    4 CL   LIG     1      16.089  32.093  14.279  1.00  0.00    -0.129 Cl
ENDBRANCH   2   3
BRANCH   2   5
HETATM    5  C   LIG     1      13.428  29.666  14.675  1.00  0.00     0.102 C 
HETATM    6 BR   LIG     1      13.041  30.810  16.195  1.00  0.00    -0.095 Br
ENDBRANCH   2   5
TORSDOF 2
ENDMDL
MODEL 10
REMARK VINA RESULT:      -3.2      8.084      8.794
REMARK  2 active torsions:
REMARK  status: ('A' for Active; 'I' for Inactive)
REMARK    1  A    between atoms: C_2  and  C_3 
REMARK    2  A    between atoms: C_2  and  C_5 
ROOT
HETATM    1 BR   LIG     1      15.836  32.536  15.703  1.00  0.00    -0.089 Br
HETATM    2  C   LIG     1      14.530  32.575  17.144  1.00  0.00     0.081 C 
ENDROOT
BRANCH   2   3
HETATM    3  C   LIG     1      13.763  31.242  17.142  1.00  0.00     0.131 C 
HETATM    4 CL   LIG     1      13.660  30.525  15.513  1.00  0.00    -0.129 Cl
ENDBRANCH   2   3
BRANCH   2   5
HETATM    5  C   LIG     1      15.265  32.843  18.467  1.00  0.00     0.102 C 
HETATM    6 BR   LIG     1      14.869  31.510  19.821  1.00  0.00    -0.095 Br
ENDBRANCH   2   5
TORSDOF 2
ENDMDL
MODEL 11
REMARK VINA RESULT:      -3.2      8.653      9.395
REMARK  2 active torsions:
REMARK  status: ('A' for Active; 'I' for Inactive)
REMARK    1  A    between atoms: C_2  and  C_3 
REMARK    2  A    between atoms: C_2  and  C_5 
ROOT
HETATM    1 BR   LIG     1      15.147  32.396  19.100  1.00  0.00    -0.089 Br
HETATM    2  C   LIG     1      14.807  32.110  17.206  1.00  0.00     0.081 C 
ENDROOT
BRANCH   2   3
HETATM    3  C   LIG     1      13.293  31.933  17.005  1.00  0.00     0.131 C 
HETATM    4 CL   LIG     1      12.914  30.682  15.792  1.00  0.00    -0.129 Cl
ENDBRANCH   2   3
BRANCH   2   5
HETATM    5  C   LIG     1      15.383  33.298  16.418  1.00  0.00     0.102 C 
HETATM    6 BR   LIG     1      16.633  32.741  15.041  1.00  0.00    -0.095 Br
ENDBRANCH   2   5
TORSDOF 2
ENDMDL
MODEL 12
REMARK VINA RESULT:      -3.2      8.805      9.178
REMARK  2 active torsions:
REMARK  status: ('A' for Active; 'I' for Inactive)
REMARK    1  A    between atoms: C_2  and  C_3 
REMARK    2  A    between atoms: C_2  and  C_5 
ROOT
HETATM    1 BR   LIG     1      13.629  30.864  16.039  1.00  0.00    -0.089 Br
HETATM    2  C   LIG     1      14.124  32.325  17.223  1.00  0.00     0.081 C 
ENDROOT
BRANCH   2   3
HETATM    3  C   LIG     1      14.509  31.735  18.590  1.00  0.00     0.131 C 
HETATM    4 CL   LIG     1      15.457  32.878  19.576  1.00  0.00    -0.129 Cl
ENDBRANCH   2   3
BRANCH   2   5
HETATM    5  C   LIG     1      15.264  33.123  16.570  1.00  0.00     0.102 C 
HETATM    6 BR   LIG     1      16.042  32.200  15.050  1.00  0.00    -0.095 Br
ENDBRANCH   2   5
TORSDOF 2
ENDMDL
MODEL 13
REMARK VINA RESULT:      -3.1      2.430      3.308
REMARK  2 active torsions:
REMARK  status: ('A' for Active; 'I' for Inactive)
REMARK    1  A    between atoms: C_2  and  C_3 
REMARK    2  A    between atoms: C_2  and  C_5 
ROOT
HETATM    1 BR   LIG     1      16.613  38.924  22.442  1.00  0.00    -0.089 Br
HETATM    2  C   LIG     1      17.044  37.038  22.644  1.00  0.00     0.081 C 
ENDROOT
BRANCH   2   3
HETATM    3  C   LIG     1      17.398  36.775  24.117  1.00  0.00     0.131 C 
HETATM    4 CL   LIG     1      17.213  35.058  24.560  1.00  0.00    -0.129 Cl
ENDBRANCH   2   3
BRANCH   2   5
HETATM    5  C   LIG     1      15.848  36.205  22.155  1.00  0.00     0.102 C 
HETATM    6 BR   LIG     1      16.257  35.184  20.556  1.00  0.00    -0.095 Br
ENDBRANCH   2   5
TORSDOF 2
ENDMDL
MODEL 14
REMARK VINA RESULT:      -3.0     10.132     10.902
REMARK  2 active torsions:
REMARK  status: ('A' for Active; 'I' for Inactive)
REMARK    1  A    between atoms: C_2  and  C_3 
REMARK    2  A    between atoms: C_2  and  C_5 
ROOT
HETATM    1 BR   LIG     1      14.984  30.075  14.019  1.00  0.00    -0.089 Br
HETATM    2  C   LIG     1      15.977  31.516  14.869  1.00  0.00     0.081 C 
ENDROOT
BRANCH   2   3
HETATM    3  C   LIG     1      16.420  32.509  13.781  1.00  0.00     0.131 C 
HETATM    4 CL   LIG     1      17.738  33.574  14.337  1.00  0.00    -0.129 Cl
ENDBRANCH   2   3
BRANCH   2   5
HETATM    5  C   LIG     1      15.086  32.159  15.944  1.00  0.00     0.102 C 
HETATM    6 BR   LIG     1      13.571  31.042  16.421  1.00  0.00    -0.095 Br
ENDBRANCH   2   5
TORSDOF 2
ENDMDL
MODEL 15
REMARK VINA RESULT:      -3.0     10.087     10.978
REMARK  2 active torsions:
REMARK  status: ('A' for Active; 'I' for Inactive)
REMARK    1  A    between atoms: C_2  and  C_3 
REMARK    2  A    between atoms: C_2  and  C_5 
ROOT
HETATM    1 BR   LIG     1      13.361  30.903  16.179  1.00  0.00    -0.089 Br
HETATM    2  C   LIG     1      15.092  30.893  15.293  1.00  0.00     0.081 C 
ENDROOT
BRANCH   2   3
HETATM    3  C   LIG     1      14.902  30.367  13.860  1.00  0.00     0.131 C 
HETATM    4 CL   LIG     1      15.296  28.634  13.719  1.00  0.00    -0.129 Cl
ENDBRANCH   2   3
BRANCH   2   5
HETATM    5  C   LIG     1      15.676  32.314  15.339  1.00  0.00     0.102 C 
HETATM    6 BR   LIG     1      14.979  33.357  16.821  1.00  0.00    -0.095 Br
ENDBRANCH   2   5
TORSDOF 2
ENDMDL
MODEL 16
REMARK VINA RESULT:      -3.0     10.333     10.853
REMARK  2 active torsions:
REMARK  status: ('A' for Active; 'I' for Inactive)
REMARK    1  A    between atoms: C_2  and  C_3 
REMARK    2  A    between atoms: C_2  and  C_5 
ROOT
HETATM    1 BR   LIG     1      15.116  32.602  16.414  1.00  0.00    -0.089 Br
HETATM    2  C   LIG     1      15.691  31.421  14.979  1.00  0.00     0.081 C 
ENDROOT
BRANCH   2   3
HETATM    3  C   LIG     1      14.519  30.496  14.612  1.00  0.00     0.131 C 
HETATM    4 CL   LIG     1      13.233  30.513  15.846  1.00  0.00    -0.129 Cl
ENDBRANCH   2   3
BRANCH   2   5
HETATM    5  C   LIG     1      16.172  32.281  13.798  1.00  0.00     0.102 C 
HETATM    6 BR   LIG     1      17.687  33.401  14.262  1.00  0.00    -0.095 Br
ENDBRANCH   2   5
TORSDOF 2
ENDMDL
MODEL 17
REMARK VINA RESULT:      -2.9     10.771     11.177
REMARK  2 active torsions:
REMARK  status: ('A' for Active; 'I' for Inactive)
REMARK    1  A    between atoms: C_2  and  C_3 
REMARK    2  A    between atoms: C_2  and  C_5 
ROOT
HETATM    1 BR   LIG     1      16.599  32.251  15.288  1.00  0.00    -0.089 Br
HETATM    2  C   LIG     1      15.011  31.390  14.567  1.00  0.00     0.081 C 
ENDROOT
BRANCH   2   3
HETATM    3  C   LIG     1      15.445  30.418  13.458  1.00  0.00     0.131 C 
HETATM    4 CL   LIG     1      15.285  28.713  13.953  1.00  0.00    -0.129 Cl
ENDBRANCH   2   3
BRANCH   2   5
HETATM    5  C   LIG     1      14.263  30.695  15.717  1.00  0.00     0.102 C 
HETATM    6 BR   LIG     1      13.581  31.953  17.029  1.00  0.00    -0.095 Br
ENDBRANCH   2   5
TORSDOF 2
ENDMDL
MODEL 18
REMARK VINA RESULT:      -2.8      8.317      9.118
REMARK  2 active torsions:
REMARK  status: ('A' for Active; 'I' for Inactive)
REMARK    1  A    between atoms: C_2  and  C_3 
REMARK    2  A    between atoms: C_2  and  C_5 
ROOT
HETATM    1 BR   LIG     1      14.389  30.815  15.278  1.00  0.00    -0.089 Br
HETATM    2  C   LIG     1      15.215  31.879  16.681  1.00  0.00     0.081 C 
ENDROOT
BRANCH   2   3
HETATM    3  C   LIG     1      15.566  33.260  16.102  1.00  0.00     0.131 C 
HETATM    4 CL   LIG     1      16.987  33.201  15.027  1.00  0.00    -0.129 Cl
ENDBRANCH   2   3
BRANCH   2   5
HETATM    5  C   LIG     1      14.249  31.955  17.874  1.00  0.00     0.102 C 
HETATM    6 BR   LIG     1      15.175  32.042  19.577  1.00  0.00    -0.095 Br
ENDBRANCH   2   5
TORSDOF 2
ENDMDL
MODEL 19
REMARK VINA RESULT:      -2.7      7.278      8.029
REMARK  2 active torsions:
REMARK  status: ('A' for Active; 'I' for Inactive)
REMARK    1  A    between atoms: C_2  and  C_3 
REMARK    2  A    between atoms: C_2  and  C_5 
ROOT
HETATM    1 BR   LIG     1      15.096  31.951  19.512  1.00  0.00    -0.089 Br
HETATM    2  C   LIG     1      15.034  32.646  17.697  1.00  0.00     0.081 C 
ENDROOT
BRANCH   2   3
HETATM    3  C   LIG     1      13.717  32.191  17.046  1.00  0.00     0.131 C 
HETATM    4 CL   LIG     1      13.948  30.798  15.957  1.00  0.00    -0.129 Cl
ENDBRANCH   2   3
BRANCH   2   5
HETATM    5  C   LIG     1      15.181  34.176  17.751  1.00  0.00     0.102 C 
HETATM    6 BR   LIG     1      15.626  34.818  19.528  1.00  0.00    -0.095 Br
ENDBRANCH   2   5
TORSDOF 2
ENDMDL
MODEL 20
REMARK VINA RESULT:      -2.7      9.759     10.846
REMARK  2 active torsions:
REMARK  status: ('A' for Active; 'I' for Inactive)
REMARK    1  A    between atoms: C_2  and  C_3 
REMARK    2  A    between atoms: C_2  and  C_5 
ROOT
HETATM    1 BR   LIG     1      15.060  33.085  16.657  1.00  0.00    -0.089 Br
HETATM    2  C   LIG     1      14.831  31.259  16.026  1.00  0.00     0.081 C 
ENDROOT
BRANCH   2   3
HETATM    3  C   LIG     1      13.366  30.848  16.247  1.00  0.00     0.131 C 
HETATM    4 CL   LIG     1      12.358  32.212  16.800  1.00  0.00    -0.129 Cl
ENDBRANCH   2   3
BRANCH   2   5
HETATM    5  C   LIG     1      15.258  31.192  14.550  1.00  0.00     0.102 C 
HETATM    6 BR   LIG     1      15.230  29.381  13.850  1.00  0.00    -0.095 Br
ENDBRANCH   2   5
TORSDOF 2
ENDMDL
