REMARK  2 active torsions:
REMARK  status: ('A' for Active; 'I' for Inactive)
REMARK    1  A    between atoms: C_2  and  C_3 
REMARK    2  A    between atoms: C_2  and  C_5 
ROOT
HETATM    1 BR   LIG     1      -0.033   2.376  -0.257  1.00  0.00    -0.089 Br
HETATM    2  C   LIG     1       0.073   0.441  -0.423  1.00  0.00     0.081 C 
ENDROOT
BRANCH   2   3
HETATM    3  C   LIG     1       1.226  -0.061   0.462  1.00  0.00     0.131 C 
HETATM    4 CL   LIG     1       1.734  -1.716   0.035  1.00  0.00    -0.129 Cl
ENDBRANCH   2   3
BRANCH   2   5
HETATM    5  C   LIG     1      -1.288  -0.161  -0.036  1.00  0.00     0.102 C 
HETATM    6 BR   LIG     1      -1.541  -1.948  -0.751  1.00  0.00    -0.095 Br
ENDBRANCH   2   5
TORSDOF 2
