REMARK  2 active torsions:
REMARK  status: ('A' for Active; 'I' for Inactive)
REMARK    1  A    between atoms: C_2  and  C_5 
REMARK    2  A    between atoms: C_2  and  C_3 
ROOT
HETATM    1 CL   LIG     1      -0.008   2.151   0.153  1.00  0.00    -0.123 Cl
HETATM    2  C   LIG     1       0.024   0.445  -0.389  1.00  0.00     0.109 C 
ENDROOT
BRANCH   2   3
HETATM    3  C   LIG     1      -1.320  -0.235  -0.091  1.00  0.00     0.135 C 
HETATM    4 CL   LIG     1      -1.697  -0.276   1.656  1.00  0.00    -0.129 Cl
ENDBRANCH   2   3
BRANCH   2   5
HETATM    5  C   LIG     1       1.200  -0.305   0.251  1.00  0.00     0.135 C 
HETATM    6 CL   LIG     1       2.757   0.325  -0.348  1.00  0.00    -0.129 Cl
ENDBRANCH   2   5
TORSDOF 2
