MODEL 1
REMARK VINA RESULT:      -3.9      0.000      0.000
REMARK  2 active torsions:
REMARK  status: ('A' for Active; 'I' for Inactive)
REMARK    1  A    between atoms: C_2  and  C_5 
REMARK    2  A    between atoms: C_2  and  C_3 
ROOT
HETATM    1 CL   LIG     1      18.454  37.451  25.475  1.00  0.00    -0.123 Cl
HETATM    2  C   LIG     1      17.122  36.471  24.789  1.00  0.00     0.109 C 
ENDROOT
BRANCH   2   3
HETATM    3  C   LIG     1      17.325  34.986  25.122  1.00  0.00     0.135 C 
HETATM    4 CL   LIG     1      18.507  34.732  26.439  1.00  0.00    -0.129 Cl
ENDBRANCH   2   3
BRANCH   2   5
HETATM    5  C   LIG     1      16.997  36.708  23.278  1.00  0.00     0.135 C 
HETATM    6 CL   LIG     1      17.058  35.165  22.386  1.00  0.00    -0.129 Cl
ENDBRANCH   2   5
TORSDOF 2
ENDMDL
MODEL 2
REMARK VINA RESULT:      -3.9      1.648      3.522
REMARK  2 active torsions:
REMARK  status: ('A' for Active; 'I' for Inactive)
REMARK    1  A    between atoms: C_2  and  C_5 
REMARK    2  A    between atoms: C_2  and  C_3 
ROOT
HETATM    1 CL   LIG     1      17.156  35.436  23.812  1.00  0.00    -0.123 Cl
HETATM    2  C   LIG     1      17.248  36.844  24.914  1.00  0.00     0.109 C 
ENDROOT
BRANCH   2   3
HETATM    3  C   LIG     1      17.628  38.110  24.132  1.00  0.00     0.135 C 
HETATM    4 CL   LIG     1      17.400  37.922  22.369  1.00  0.00    -0.129 Cl
ENDBRANCH   2   3
BRANCH   2   5
HETATM    5  C   LIG     1      18.223  36.568  26.066  1.00  0.00     0.135 C 
HETATM    6 CL   LIG     1      18.381  34.816  26.358  1.00  0.00    -0.129 Cl
ENDBRANCH   2   5
TORSDOF 2
ENDMDL
MODEL 3
REMARK VINA RESULT:      -3.8      2.029      2.397
REMARK  2 active torsions:
REMARK  status: ('A' for Active; 'I' for Inactive)
REMARK    1  A    between atoms: C_2  and  C_5 
REMARK    2  A    between atoms: C_2  and  C_3 
ROOT
HETATM    1 CL   LIG     1      17.230  35.209  24.282  1.00  0.00    -0.123 Cl
HETATM    2  C   LIG     1      17.377  36.993  24.256  1.00  0.00     0.109 C 
ENDROOT
BRANCH   2   3
HETATM    3  C   LIG     1      17.487  37.540  25.687  1.00  0.00     0.135 C 
HETATM    4 CL   LIG     1      18.460  36.485  26.753  1.00  0.00    -0.129 Cl
ENDBRANCH   2   3
BRANCH   2   5
HETATM    5  C   LIG     1      16.205  37.622  23.491  1.00  0.00     0.135 C 
HETATM    6 CL   LIG     1      16.772  38.942  22.434  1.00  0.00    -0.129 Cl
ENDBRANCH   2   5
TORSDOF 2
ENDMDL
MODEL 4
REMARK VINA RESULT:      -3.7      0.606      3.018
REMARK  2 active torsions:
REMARK  status: ('A' for Active; 'I' for Inactive)
REMARK    1  A    between atoms: C_2  and  C_5 
REMARK    2  A    between atoms: C_2  and  C_3 
ROOT
HETATM    1 CL   LIG     1      17.211  37.856  25.542  1.00  0.00    -0.123 Cl
HETATM    2  C   LIG     1      17.557  36.459  24.478  1.00  0.00     0.109 C 
ENDROOT
BRANCH   2   3
HETATM    3  C   LIG     1      16.785  36.589  23.157  1.00  0.00     0.135 C 
HETATM    4 CL   LIG     1      16.979  35.158  22.104  1.00  0.00    -0.129 Cl
ENDBRANCH   2   3
BRANCH   2   5
HETATM    5  C   LIG     1      17.244  35.140  25.197  1.00  0.00     0.135 C 
HETATM    6 CL   LIG     1      18.496  34.766  26.411  1.00  0.00    -0.129 Cl
ENDBRANCH   2   5
TORSDOF 2
ENDMDL
MODEL 5
REMARK VINA RESULT:      -3.6      1.672      1.838
REMARK  2 active torsions:
REMARK  status: ('A' for Active; 'I' for Inactive)
REMARK    1  A    between atoms: C_2  and  C_5 
REMARK    2  A    between atoms: C_2  and  C_3 
ROOT
HETATM    1 CL   LIG     1      17.829  38.370  22.850  1.00  0.00    -0.123 Cl
HETATM    2  C   LIG     1      16.844  37.041  23.534  1.00  0.00     0.109 C 
ENDROOT
BRANCH   2   3
HETATM    3  C   LIG     1      17.336  36.682  24.943  1.00  0.00     0.135 C 
HETATM    4 CL   LIG     1      17.424  34.917  25.212  1.00  0.00    -0.129 Cl
ENDBRANCH   2   3
BRANCH   2   5
HETATM    5  C   LIG     1      16.850  35.825  22.598  1.00  0.00     0.135 C 
HETATM    6 CL   LIG     1      17.572  36.240  21.021  1.00  0.00    -0.129 Cl
ENDBRANCH   2   5
TORSDOF 2
ENDMDL
MODEL 6
REMARK VINA RESULT:      -3.5      2.506      3.262
REMARK  2 active torsions:
REMARK  status: ('A' for Active; 'I' for Inactive)
REMARK    1  A    between atoms: C_2  and  C_5 
REMARK    2  A    between atoms: C_2  and  C_3 
ROOT
HETATM    1 CL   LIG     1      18.045  38.805  21.691  1.00  0.00    -0.123 Cl
HETATM    2  C   LIG     1      17.035  37.330  21.790  1.00  0.00     0.109 C 
ENDROOT
BRANCH   2   3
HETATM    3  C   LIG     1      16.924  36.856  23.246  1.00  0.00     0.135 C 
HETATM    4 CL   LIG     1      17.084  35.083  23.406  1.00  0.00    -0.129 Cl
ENDBRANCH   2   3
BRANCH   2   5
HETATM    5  C   LIG     1      17.588  36.232  20.871  1.00  0.00     0.135 C 
HETATM    6 CL   LIG     1      18.839  36.886  19.782  1.00  0.00    -0.129 Cl
ENDBRANCH   2   5
TORSDOF 2
ENDMDL
MODEL 7
REMARK VINA RESULT:      -3.5      1.746      3.356
REMARK  2 active torsions:
REMARK  status: ('A' for Active; 'I' for Inactive)
REMARK    1  A    between atoms: C_2  and  C_5 
REMARK    2  A    between atoms: C_2  and  C_3 
ROOT
HETATM    1 CL   LIG     1      17.456  39.259  22.360  1.00  0.00    -0.123 Cl
HETATM    2  C   LIG     1      17.363  37.668  23.177  1.00  0.00     0.109 C 
ENDROOT
BRANCH   2   3
HETATM    3  C   LIG     1      16.369  36.752  22.449  1.00  0.00     0.135 C 
HETATM    4 CL   LIG     1      16.929  35.056  22.370  1.00  0.00    -0.129 Cl
ENDBRANCH   2   3
BRANCH   2   5
HETATM    5  C   LIG     1      17.004  37.840  24.659  1.00  0.00     0.135 C 
HETATM    6 CL   LIG     1      18.228  37.070  25.703  1.00  0.00    -0.129 Cl
ENDBRANCH   2   5
TORSDOF 2
ENDMDL
MODEL 8
REMARK VINA RESULT:      -3.5      2.639      4.441
REMARK  2 active torsions:
REMARK  status: ('A' for Active; 'I' for Inactive)
REMARK    1  A    between atoms: C_2  and  C_5 
REMARK    2  A    between atoms: C_2  and  C_3 
ROOT
HETATM    1 CL   LIG     1      17.927  36.544  20.606  1.00  0.00    -0.123 Cl
HETATM    2  C   LIG     1      17.220  37.640  21.832  1.00  0.00     0.109 C 
ENDROOT
BRANCH   2   3
HETATM    3  C   LIG     1      18.117  38.871  22.028  1.00  0.00     0.135 C 
HETATM    4 CL   LIG     1      18.819  39.461  20.493  1.00  0.00    -0.129 Cl
ENDBRANCH   2   3
BRANCH   2   5
HETATM    5  C   LIG     1      16.976  36.893  23.151  1.00  0.00     0.135 C 
HETATM    6 CL   LIG     1      16.995  35.129  22.894  1.00  0.00    -0.129 Cl
ENDBRANCH   2   5
TORSDOF 2
ENDMDL
MODEL 9
REMARK VINA RESULT:      -3.4      2.341      2.993
REMARK  2 active torsions:
REMARK  status: ('A' for Active; 'I' for Inactive)
REMARK    1  A    between atoms: C_2  and  C_5 
REMARK    2  A    between atoms: C_2  and  C_3 
ROOT
HETATM    1 CL   LIG     1      17.014  37.307  24.786  1.00  0.00    -0.123 Cl
HETATM    2  C   LIG     1      16.302  37.789  23.215  1.00  0.00     0.109 C 
ENDROOT
BRANCH   2   3
HETATM    3  C   LIG     1      16.342  36.613  22.228  1.00  0.00     0.135 C 
HETATM    4 CL   LIG     1      17.056  35.139  22.944  1.00  0.00    -0.129 Cl
ENDBRANCH   2   3
BRANCH   2   5
HETATM    5  C   LIG     1      17.011  39.030  22.657  1.00  0.00     0.135 C 
HETATM    6 CL   LIG     1      18.038  38.603  21.263  1.00  0.00    -0.129 Cl
ENDBRANCH   2   5
TORSDOF 2
ENDMDL
MODEL 10
REMARK VINA RESULT:      -3.4      2.014      2.694
REMARK  2 active torsions:
REMARK  status: ('A' for Active; 'I' for Inactive)
REMARK    1  A    between atoms: C_2  and  C_5 
REMARK    2  A    between atoms: C_2  and  C_3 
ROOT
HETATM    1 CL   LIG     1      16.626  39.092  22.550  1.00  0.00    -0.123 Cl
HETATM    2  C   LIG     1      16.466  37.324  22.780  1.00  0.00     0.109 C 
ENDROOT
BRANCH   2   3
HETATM    3  C   LIG     1      17.116  36.897  24.104  1.00  0.00     0.135 C 
HETATM    4 CL   LIG     1      17.260  38.248  25.266  1.00  0.00    -0.129 Cl
ENDBRANCH   2   3
BRANCH   2   5
HETATM    5  C   LIG     1      17.054  36.566  21.582  1.00  0.00     0.135 C 
HETATM    6 CL   LIG     1      16.623  34.837  21.651  1.00  0.00    -0.129 Cl
ENDBRANCH   2   5
TORSDOF 2
ENDMDL
MODEL 11
REMARK VINA RESULT:      -3.3      7.165      8.784
REMARK  2 active torsions:
REMARK  status: ('A' for Active; 'I' for Inactive)
REMARK    1  A    between atoms: C_2  and  C_5 
REMARK    2  A    between atoms: C_2  and  C_3 
ROOT
HETATM    1 CL   LIG     1      15.125  34.142  16.877  1.00  0.00    -0.123 Cl
HETATM    2  C   LIG     1      15.052  32.538  17.671  1.00  0.00     0.109 C 
ENDROOT
BRANCH   2   3
HETATM    3  C   LIG     1      13.758  31.809  17.283  1.00  0.00     0.135 C 
HETATM    4 CL   LIG     1      13.937  30.833  15.797  1.00  0.00    -0.129 Cl
ENDBRANCH   2   3
BRANCH   2   5
HETATM    5  C   LIG     1      15.198  32.679  19.192  1.00  0.00     0.135 C 
HETATM    6 CL   LIG     1      14.827  31.139  20.011  1.00  0.00    -0.129 Cl
ENDBRANCH   2   5
TORSDOF 2
ENDMDL
MODEL 12
REMARK VINA RESULT:      -3.3      1.404      3.315
REMARK  2 active torsions:
REMARK  status: ('A' for Active; 'I' for Inactive)
REMARK    1  A    between atoms: C_2  and  C_5 
REMARK    2  A    between atoms: C_2  and  C_3 
ROOT
HETATM    1 CL   LIG     1      17.532  34.912  25.171  1.00  0.00    -0.123 Cl
HETATM    2  C   LIG     1      16.784  35.873  23.858  1.00  0.00     0.109 C 
ENDROOT
BRANCH   2   3
HETATM    3  C   LIG     1      17.091  35.241  22.493  1.00  0.00     0.135 C 
HETATM    4 CL   LIG     1      15.618  34.689  21.644  1.00  0.00    -0.129 Cl
ENDBRANCH   2   3
BRANCH   2   5
HETATM    5  C   LIG     1      17.242  37.336  23.929  1.00  0.00     0.135 C 
HETATM    6 CL   LIG     1      17.327  37.894  25.621  1.00  0.00    -0.129 Cl
ENDBRANCH   2   5
TORSDOF 2
ENDMDL
MODEL 13
REMARK VINA RESULT:      -3.3      4.200      5.073
REMARK  2 active torsions:
REMARK  status: ('A' for Active; 'I' for Inactive)
REMARK    1  A    between atoms: C_2  and  C_5 
REMARK    2  A    between atoms: C_2  and  C_3 
ROOT
HETATM    1 CL   LIG     1      20.240  39.036  19.455  1.00  0.00    -0.123 Cl
HETATM    2  C   LIG     1      18.739  38.352  20.149  1.00  0.00     0.109 C 
ENDROOT
BRANCH   2   3
HETATM    3  C   LIG     1      18.640  38.690  21.644  1.00  0.00     0.135 C 
HETATM    4 CL   LIG     1      16.977  39.117  22.143  1.00  0.00    -0.129 Cl
ENDBRANCH   2   3
BRANCH   2   5
HETATM    5  C   LIG     1      18.665  36.840  19.897  1.00  0.00     0.135 C 
HETATM    6 CL   LIG     1      17.463  36.075  20.970  1.00  0.00    -0.129 Cl
ENDBRANCH   2   5
TORSDOF 2
ENDMDL
MODEL 14
REMARK VINA RESULT:      -3.2      3.616      4.602
REMARK  2 active torsions:
REMARK  status: ('A' for Active; 'I' for Inactive)
REMARK    1  A    between atoms: C_2  and  C_5 
REMARK    2  A    between atoms: C_2  and  C_3 
ROOT
HETATM    1 CL   LIG     1      18.607  36.733  19.925  1.00  0.00    -0.123 Cl
HETATM    2  C   LIG     1      17.363  36.066  21.027  1.00  0.00     0.109 C 
ENDROOT
BRANCH   2   3
HETATM    3  C   LIG     1      16.197  35.477  20.220  1.00  0.00     0.135 C 
HETATM    4 CL   LIG     1      15.877  33.765  20.625  1.00  0.00    -0.129 Cl
ENDBRANCH   2   3
BRANCH   2   5
HETATM    5  C   LIG     1      16.890  37.135  22.021  1.00  0.00     0.135 C 
HETATM    6 CL   LIG     1      17.991  38.537  22.017  1.00  0.00    -0.129 Cl
ENDBRANCH   2   5
TORSDOF 2
ENDMDL
MODEL 15
REMARK VINA RESULT:      -3.0      8.547      9.564
REMARK  2 active torsions:
REMARK  status: ('A' for Active; 'I' for Inactive)
REMARK    1  A    between atoms: C_2  and  C_5 
REMARK    2  A    between atoms: C_2  and  C_3 
ROOT
HETATM    1 CL   LIG     1      14.537  31.566  18.936  1.00  0.00    -0.123 Cl
HETATM    2  C   LIG     1      13.945  31.998  17.302  1.00  0.00     0.109 C 
ENDROOT
BRANCH   2   3
HETATM    3  C   LIG     1      13.441  30.747  16.569  1.00  0.00     0.135 C 
HETATM    4 CL   LIG     1      14.364  30.407  15.076  1.00  0.00    -0.129 Cl
ENDBRANCH   2   3
BRANCH   2   5
HETATM    5  C   LIG     1      15.035  32.729  16.506  1.00  0.00     0.135 C 
HETATM    6 CL   LIG     1      15.146  34.438  17.002  1.00  0.00    -0.129 Cl
ENDBRANCH   2   5
TORSDOF 2
ENDMDL
MODEL 16
REMARK VINA RESULT:      -3.0      8.165      9.645
REMARK  2 active torsions:
REMARK  status: ('A' for Active; 'I' for Inactive)
REMARK    1  A    between atoms: C_2  and  C_5 
REMARK    2  A    between atoms: C_2  and  C_3 
ROOT
HETATM    1 CL   LIG     1      12.467  32.128  16.789  1.00  0.00    -0.123 Cl
HETATM    2  C   LIG     1      14.166  31.583  16.942  1.00  0.00     0.109 C 
ENDROOT
BRANCH   2   3
HETATM    3  C   LIG     1      15.011  32.661  17.636  1.00  0.00     0.135 C 
HETATM    4 CL   LIG     1      15.452  32.215  19.310  1.00  0.00    -0.129 Cl
ENDBRANCH   2   3
BRANCH   2   5
HETATM    5  C   LIG     1      14.738  31.201  15.570  1.00  0.00     0.135 C 
HETATM    6 CL   LIG     1      13.690  30.012  14.753  1.00  0.00    -0.129 Cl
ENDBRANCH   2   5
TORSDOF 2
ENDMDL
MODEL 17
REMARK VINA RESULT:      -2.9     10.797     11.813
REMARK  2 active torsions:
REMARK  status: ('A' for Active; 'I' for Inactive)
REMARK    1  A    between atoms: C_2  and  C_5 
REMARK    2  A    between atoms: C_2  and  C_3 
ROOT
HETATM    1 CL   LIG     1      12.967  30.974  16.104  1.00  0.00    -0.123 Cl
HETATM    2  C   LIG     1      14.597  30.628  15.450  1.00  0.00     0.109 C 
ENDROOT
BRANCH   2   3
HETATM    3  C   LIG     1      15.386  31.932  15.264  1.00  0.00     0.135 C 
HETATM    4 CL   LIG     1      16.032  32.114  13.607  1.00  0.00    -0.129 Cl
ENDBRANCH   2   3
BRANCH   2   5
HETATM    5  C   LIG     1      14.498  29.827  14.144  1.00  0.00     0.135 C 
HETATM    6 CL   LIG     1      13.001  28.859  14.105  1.00  0.00    -0.129 Cl
ENDBRANCH   2   5
TORSDOF 2
ENDMDL
MODEL 18
REMARK VINA RESULT:      -2.9      9.017     10.149
REMARK  2 active torsions:
REMARK  status: ('A' for Active; 'I' for Inactive)
REMARK    1  A    between atoms: C_2  and  C_5 
REMARK    2  A    between atoms: C_2  and  C_3 
ROOT
HETATM    1 CL   LIG     1      14.785  34.083  16.818  1.00  0.00    -0.123 Cl
HETATM    2  C   LIG     1      15.497  32.509  16.348  1.00  0.00     0.109 C 
ENDROOT
BRANCH   2   3
HETATM    3  C   LIG     1      16.386  32.674  15.107  1.00  0.00     0.135 C 
HETATM    4 CL   LIG     1      15.812  31.710  13.716  1.00  0.00    -0.129 Cl
ENDBRANCH   2   3
BRANCH   2   5
HETATM    5  C   LIG     1      14.397  31.461  16.129  1.00  0.00     0.135 C 
HETATM    6 CL   LIG     1      12.852  32.003  16.835  1.00  0.00    -0.129 Cl
ENDBRANCH   2   5
TORSDOF 2
ENDMDL
MODEL 19
REMARK VINA RESULT:      -2.9      8.433     10.039
REMARK  2 active torsions:
REMARK  status: ('A' for Active; 'I' for Inactive)
REMARK    1  A    between atoms: C_2  and  C_5 
REMARK    2  A    between atoms: C_2  and  C_3 
ROOT
HETATM    1 CL   LIG     1      17.313  33.461  14.942  1.00  0.00    -0.123 Cl
HETATM    2  C   LIG     1      16.169  32.325  15.720  1.00  0.00     0.109 C 
ENDROOT
BRANCH   2   3
HETATM    3  C   LIG     1      15.505  31.429  14.665  1.00  0.00     0.135 C 
HETATM    4 CL   LIG     1      14.090  30.544  15.307  1.00  0.00    -0.129 Cl
ENDBRANCH   2   3
BRANCH   2   5
HETATM    5  C   LIG     1      15.133  33.088  16.557  1.00  0.00     0.135 C 
HETATM    6 CL   LIG     1      15.111  32.493  18.238  1.00  0.00    -0.129 Cl
ENDBRANCH   2   5
TORSDOF 2
ENDMDL
MODEL 20
REMARK VINA RESULT:      -2.9     10.326     11.354
REMARK  2 active torsions:
REMARK  status: ('A' for Active; 'I' for Inactive)
REMARK    1  A    between atoms: C_2  and  C_5 
REMARK    2  A    between atoms: C_2  and  C_3 
ROOT
HETATM    1 CL   LIG     1      14.903  29.815  13.772  1.00  0.00    -0.123 Cl
HETATM    2  C   LIG     1      15.622  31.080  14.816  1.00  0.00     0.109 C 
ENDROOT
BRANCH   2   3
HETATM    3  C   LIG     1      14.599  31.559  15.856  1.00  0.00     0.135 C 
HETATM    4 CL   LIG     1      13.067  30.640  15.787  1.00  0.00    -0.129 Cl
ENDBRANCH   2   3
BRANCH   2   5
HETATM    5  C   LIG     1      16.164  32.239  13.968  1.00  0.00     0.135 C 
HETATM    6 CL   LIG     1      17.539  33.031  14.781  1.00  0.00    -0.129 Cl
ENDBRANCH   2   5
TORSDOF 2
ENDMDL
