REMARK  2 active torsions:
REMARK  status: ('A' for Active; 'I' for Inactive)
REMARK    1  A    between atoms: C_2  and  C_5 
REMARK    2  A    between atoms: C_2  and  C_3 
ROOT
HETATM    1  C   LIG     1      -0.075   1.399   0.914  1.00  0.00     0.010 C 
HETATM    2  C   LIG     1       0.068   0.486  -0.316  1.00  0.00    -0.019 C 
ENDROOT
BRANCH   2   3
HETATM    3  C   LIG     1       0.974  -0.735  -0.027  1.00  0.00    -0.000 C 
HETATM    4  C   LIG     1       2.444  -0.351   0.141  1.00  0.00     0.005 C 
ENDBRANCH   2   3
BRANCH   2   5
HETATM    5  C   LIG     1      -1.311   0.059  -0.873  1.00  0.00    -0.000 C 
HETATM    6  C   LIG     1      -2.148  -0.790   0.088  1.00  0.00     0.005 C 
ENDBRANCH   2   5
TORSDOF 2
