REMARK  3 active torsions:
REMARK  status: ('A' for Active; 'I' for Inactive)
REMARK    1  A    between atoms: O_1  and  C_2 
REMARK    2  A    between atoms: C_2  and  C_5 
REMARK    3  A    between atoms: C_2  and  C_3 
ROOT
HETATM    1  C   LIG     1      -0.025   0.429  -0.246  1.00  0.00     0.145 C 
ENDROOT
BRANCH   1   2
HETATM    2  O   LIG     1      -0.051   1.473   0.693  1.00  0.00    -0.393 OA
HETATM    3  H   LIG     1      -0.843   2.033   0.477  1.00  0.00     0.210 HD
ENDBRANCH   1   2
BRANCH   1   4
HETATM    4  C   LIG     1      -1.171  -0.570   0.006  1.00  0.00     0.147 C 
HETATM    5 CL   LIG     1      -1.306  -1.060   1.718  1.00  0.00    -0.128 Cl
ENDBRANCH   1   4
BRANCH   1   6
HETATM    6  C   LIG     1       1.361  -0.236  -0.258  1.00  0.00     0.147 C 
HETATM    7 CL   LIG     1       1.938  -0.683   1.373  1.00  0.00    -0.128 Cl
ENDBRANCH   1   6
TORSDOF 3
