MODEL 1
REMARK VINA RESULT:      -4.0      0.000      0.000
REMARK  3 active torsions:
REMARK  status: ('A' for Active; 'I' for Inactive)
REMARK    1  A    between atoms: O_1  and  C_2 
REMARK    2  A    between atoms: C_2  and  C_5 
REMARK    3  A    between atoms: C_2  and  C_3 
ROOT
HETATM    1  C   LIG     1      17.263  37.414  25.432  1.00  0.00     0.145 C 
ENDROOT
BRANCH   1   2
HETATM    2  O   LIG     1      17.304  38.800  25.659  1.00  0.00    -0.393 OA
HETATM    3  H   LIG     1      17.593  38.928  26.601  1.00  0.00     0.210 HD
ENDBRANCH   1   2
BRANCH   1   4
HETATM    4  C   LIG     1      18.476  36.713  26.073  1.00  0.00     0.147 C 
HETATM    5 CL   LIG     1      18.242  34.954  26.269  1.00  0.00    -0.128 Cl
ENDBRANCH   1   4
BRANCH   1   6
HETATM    6  C   LIG     1      17.129  37.129  23.928  1.00  0.00     0.147 C 
HETATM    7 CL   LIG     1      17.757  38.453  22.905  1.00  0.00    -0.128 Cl
ENDBRANCH   1   6
TORSDOF 3
ENDMDL
MODEL 2
REMARK VINA RESULT:      -4.0      0.621      3.126
REMARK  3 active torsions:
REMARK  status: ('A' for Active; 'I' for Inactive)
REMARK    1  A    between atoms: O_1  and  C_2 
REMARK    2  A    between atoms: C_2  and  C_5 
REMARK    3  A    between atoms: C_2  and  C_3 
ROOT
HETATM    1  C   LIG     1      17.939  37.500  25.315  1.00  0.00     0.145 C 
ENDROOT
BRANCH   1   2
HETATM    2  O   LIG     1      17.273  38.660  25.744  1.00  0.00    -0.393 OA
HETATM    3  H   LIG     1      17.862  39.098  26.414  1.00  0.00     0.210 HD
ENDBRANCH   1   2
BRANCH   1   4
HETATM    4  C   LIG     1      17.109  36.746  24.258  1.00  0.00     0.147 C 
HETATM    5 CL   LIG     1      17.180  37.505  22.643  1.00  0.00    -0.128 Cl
ENDBRANCH   1   4
BRANCH   1   6
HETATM    6  C   LIG     1      18.309  36.627  26.525  1.00  0.00     0.147 C 
HETATM    7 CL   LIG     1      18.172  34.876  26.193  1.00  0.00    -0.128 Cl
ENDBRANCH   1   6
TORSDOF 3
ENDMDL
MODEL 3
REMARK VINA RESULT:      -3.9      2.240      2.392
REMARK  3 active torsions:
REMARK  status: ('A' for Active; 'I' for Inactive)
REMARK    1  A    between atoms: O_1  and  C_2 
REMARK    2  A    between atoms: C_2  and  C_5 
REMARK    3  A    between atoms: C_2  and  C_3 
ROOT
HETATM    1  C   LIG     1      16.382  37.321  23.945  1.00  0.00     0.145 C 
ENDROOT
BRANCH   1   2
HETATM    2  O   LIG     1      15.251  38.091  23.628  1.00  0.00    -0.393 OA
HETATM    3  H   LIG     1      14.730  38.193  24.469  1.00  0.00     0.210 HD
ENDBRANCH   1   2
BRANCH   1   4
HETATM    4  C   LIG     1      17.308  38.074  24.919  1.00  0.00     0.147 C 
HETATM    5 CL   LIG     1      18.410  36.990  25.813  1.00  0.00    -0.128 Cl
ENDBRANCH   1   4
BRANCH   1   6
HETATM    6  C   LIG     1      17.096  36.878  22.657  1.00  0.00     0.147 C 
HETATM    7 CL   LIG     1      17.081  35.106  22.422  1.00  0.00    -0.128 Cl
ENDBRANCH   1   6
TORSDOF 3
ENDMDL
MODEL 4
REMARK VINA RESULT:      -3.9      1.786      1.961
REMARK  3 active torsions:
REMARK  status: ('A' for Active; 'I' for Inactive)
REMARK    1  A    between atoms: O_1  and  C_2 
REMARK    2  A    between atoms: C_2  and  C_5 
REMARK    3  A    between atoms: C_2  and  C_3 
ROOT
HETATM    1  C   LIG     1      16.563  37.459  23.874  1.00  0.00     0.145 C 
ENDROOT
BRANCH   1   2
HETATM    2  O   LIG     1      15.299  38.052  23.715  1.00  0.00    -0.393 OA
HETATM    3  H   LIG     1      14.732  37.392  23.235  1.00  0.00     0.210 HD
ENDBRANCH   1   2
BRANCH   1   4
HETATM    4  C   LIG     1      17.333  38.104  25.042  1.00  0.00     0.147 C 
HETATM    5 CL   LIG     1      18.442  36.967  25.859  1.00  0.00    -0.128 Cl
ENDBRANCH   1   4
BRANCH   1   6
HETATM    6  C   LIG     1      17.337  37.502  22.546  1.00  0.00     0.147 C 
HETATM    7 CL   LIG     1      17.864  39.149  22.096  1.00  0.00    -0.128 Cl
ENDBRANCH   1   6
TORSDOF 3
ENDMDL
MODEL 5
REMARK VINA RESULT:      -3.8      1.873      3.643
REMARK  3 active torsions:
REMARK  status: ('A' for Active; 'I' for Inactive)
REMARK    1  A    between atoms: O_1  and  C_2 
REMARK    2  A    between atoms: C_2  and  C_5 
REMARK    3  A    between atoms: C_2  and  C_3 
ROOT
HETATM    1  C   LIG     1      16.749  37.879  23.682  1.00  0.00     0.145 C 
ENDROOT
BRANCH   1   2
HETATM    2  O   LIG     1      15.357  38.056  23.735  1.00  0.00    -0.393 OA
HETATM    3  H   LIG     1      15.120  38.183  24.692  1.00  0.00     0.210 HD
ENDBRANCH   1   2
BRANCH   1   4
HETATM    4  C   LIG     1      17.238  37.776  22.224  1.00  0.00     0.147 C 
HETATM    5 CL   LIG     1      18.193  39.194  21.707  1.00  0.00    -0.128 Cl
ENDBRANCH   1   4
BRANCH   1   6
HETATM    6  C   LIG     1      17.161  36.673  24.541  1.00  0.00     0.147 C 
HETATM    7 CL   LIG     1      18.172  37.124  25.944  1.00  0.00    -0.128 Cl
ENDBRANCH   1   6
TORSDOF 3
ENDMDL
MODEL 6
REMARK VINA RESULT:      -3.7      2.943      3.875
REMARK  3 active torsions:
REMARK  status: ('A' for Active; 'I' for Inactive)
REMARK    1  A    between atoms: O_1  and  C_2 
REMARK    2  A    between atoms: C_2  and  C_5 
REMARK    3  A    between atoms: C_2  and  C_3 
ROOT
HETATM    1  C   LIG     1      16.297  37.687  23.114  1.00  0.00     0.145 C 
ENDROOT
BRANCH   1   2
HETATM    2  O   LIG     1      15.012  38.101  23.501  1.00  0.00    -0.393 OA
HETATM    3  H   LIG     1      14.996  39.092  23.423  1.00  0.00     0.210 HD
ENDBRANCH   1   2
BRANCH   1   4
HETATM    4  C   LIG     1      17.162  38.890  22.690  1.00  0.00     0.147 C 
HETATM    5 CL   LIG     1      18.107  38.582  21.206  1.00  0.00    -0.128 Cl
ENDBRANCH   1   4
BRANCH   1   6
HETATM    6  C   LIG     1      16.198  36.605  22.026  1.00  0.00     0.147 C 
HETATM    7 CL   LIG     1      17.092  35.114  22.437  1.00  0.00    -0.128 Cl
ENDBRANCH   1   6
TORSDOF 3
ENDMDL
MODEL 7
REMARK VINA RESULT:      -3.6      5.723      6.535
REMARK  3 active torsions:
REMARK  status: ('A' for Active; 'I' for Inactive)
REMARK    1  A    between atoms: O_1  and  C_2 
REMARK    2  A    between atoms: C_2  and  C_5 
REMARK    3  A    between atoms: C_2  and  C_3 
ROOT
HETATM    1  C   LIG     1      15.205  34.016  21.126  1.00  0.00     0.145 C 
ENDROOT
BRANCH   1   2
HETATM    2  O   LIG     1      13.907  33.842  21.632  1.00  0.00    -0.393 OA
HETATM    3  H   LIG     1      13.978  33.883  22.623  1.00  0.00     0.210 HD
ENDBRANCH   1   2
BRANCH   1   4
HETATM    4  C   LIG     1      15.483  35.500  20.815  1.00  0.00     0.147 C 
HETATM    5 CL   LIG     1      17.216  35.920  20.911  1.00  0.00    -0.128 Cl
ENDBRANCH   1   4
BRANCH   1   6
HETATM    6  C   LIG     1      15.427  33.096  19.915  1.00  0.00     0.147 C 
HETATM    7 CL   LIG     1      14.749  31.459  20.144  1.00  0.00    -0.128 Cl
ENDBRANCH   1   6
TORSDOF 3
ENDMDL
MODEL 8
REMARK VINA RESULT:      -3.4      2.093      3.434
REMARK  3 active torsions:
REMARK  status: ('A' for Active; 'I' for Inactive)
REMARK    1  A    between atoms: O_1  and  C_2 
REMARK    2  A    between atoms: C_2  and  C_5 
REMARK    3  A    between atoms: C_2  and  C_3 
ROOT
HETATM    1  C   LIG     1      16.927  36.810  24.282  1.00  0.00     0.145 C 
ENDROOT
BRANCH   1   2
HETATM    2  O   LIG     1      17.338  35.471  24.378  1.00  0.00    -0.393 OA
HETATM    3  H   LIG     1      16.635  34.991  24.891  1.00  0.00     0.210 HD
ENDBRANCH   1   2
BRANCH   1   4
HETATM    4  C   LIG     1      17.107  37.342  22.847  1.00  0.00     0.147 C 
HETATM    5 CL   LIG     1      17.161  36.043  21.623  1.00  0.00    -0.128 Cl
ENDBRANCH   1   4
BRANCH   1   6
HETATM    6  C   LIG     1      17.653  37.662  25.336  1.00  0.00     0.147 C 
HETATM    7 CL   LIG     1      18.509  36.683  26.561  1.00  0.00    -0.128 Cl
ENDBRANCH   1   6
TORSDOF 3
ENDMDL
MODEL 9
REMARK VINA RESULT:      -3.3      4.918      5.030
REMARK  3 active torsions:
REMARK  status: ('A' for Active; 'I' for Inactive)
REMARK    1  A    between atoms: O_1  and  C_2 
REMARK    2  A    between atoms: C_2  and  C_5 
REMARK    3  A    between atoms: C_2  and  C_3 
ROOT
HETATM    1  C   LIG     1      18.296  36.687  20.326  1.00  0.00     0.145 C 
ENDROOT
BRANCH   1   2
HETATM    2  O   LIG     1      18.432  36.605  18.930  1.00  0.00    -0.393 OA
HETATM    3  H   LIG     1      19.365  36.316  18.750  1.00  0.00     0.210 HD
ENDBRANCH   1   2
BRANCH   1   4
HETATM    4  C   LIG     1      16.985  36.027  20.794  1.00  0.00     0.147 C 
HETATM    5 CL   LIG     1      17.180  35.068  22.288  1.00  0.00    -0.128 Cl
ENDBRANCH   1   4
BRANCH   1   6
HETATM    6  C   LIG     1      18.431  38.148  20.784  1.00  0.00     0.147 C 
HETATM    7 CL   LIG     1      19.852  38.974  20.084  1.00  0.00    -0.128 Cl
ENDBRANCH   1   6
TORSDOF 3
ENDMDL
MODEL 10
REMARK VINA RESULT:      -3.3     10.211     10.743
REMARK  3 active torsions:
REMARK  status: ('A' for Active; 'I' for Inactive)
REMARK    1  A    between atoms: O_1  and  C_2 
REMARK    2  A    between atoms: C_2  and  C_5 
REMARK    3  A    between atoms: C_2  and  C_3 
ROOT
HETATM    1  C   LIG     1      13.916  31.404  17.149  1.00  0.00     0.145 C 
ENDROOT
BRANCH   1   2
HETATM    2  O   LIG     1      12.569  31.799  17.189  1.00  0.00    -0.393 OA
HETATM    3  H   LIG     1      12.290  31.961  16.249  1.00  0.00     0.210 HD
ENDBRANCH   1   2
BRANCH   1   4
HETATM    4  C   LIG     1      14.825  32.474  17.785  1.00  0.00     0.147 C 
HETATM    5 CL   LIG     1      15.356  32.048  19.436  1.00  0.00    -0.128 Cl
ENDBRANCH   1   4
BRANCH   1   6
HETATM    6  C   LIG     1      14.321  31.049  15.709  1.00  0.00     0.147 C 
HETATM    7 CL   LIG     1      13.180  29.924  14.918  1.00  0.00    -0.128 Cl
ENDBRANCH   1   6
TORSDOF 3
ENDMDL
MODEL 11
REMARK VINA RESULT:      -3.3      8.939      9.752
REMARK  3 active torsions:
REMARK  status: ('A' for Active; 'I' for Inactive)
REMARK    1  A    between atoms: O_1  and  C_2 
REMARK    2  A    between atoms: C_2  and  C_5 
REMARK    3  A    between atoms: C_2  and  C_3 
ROOT
HETATM    1  C   LIG     1      14.973  32.680  17.714  1.00  0.00     0.145 C 
ENDROOT
BRANCH   1   2
HETATM    2  O   LIG     1      14.615  33.975  17.306  1.00  0.00    -0.393 OA
HETATM    3  H   LIG     1      15.445  34.413  16.980  1.00  0.00     0.210 HD
ENDBRANCH   1   2
BRANCH   1   4
HETATM    4  C   LIG     1      13.893  31.656  17.316  1.00  0.00     0.147 C 
HETATM    5 CL   LIG     1      14.197  30.903  15.725  1.00  0.00    -0.128 Cl
ENDBRANCH   1   4
BRANCH   1   6
HETATM    6  C   LIG     1      15.287  32.669  19.219  1.00  0.00     0.147 C 
HETATM    7 CL   LIG     1      14.828  31.139  20.019  1.00  0.00    -0.128 Cl
ENDBRANCH   1   6
TORSDOF 3
ENDMDL
MODEL 12
REMARK VINA RESULT:      -3.2      6.308      6.973
REMARK  3 active torsions:
REMARK  status: ('A' for Active; 'I' for Inactive)
REMARK    1  A    between atoms: O_1  and  C_2 
REMARK    2  A    between atoms: C_2  and  C_5 
REMARK    3  A    between atoms: C_2  and  C_3 
ROOT
HETATM    1  C   LIG     1      15.695  33.752  20.148  1.00  0.00     0.145 C 
ENDROOT
BRANCH   1   2
HETATM    2  O   LIG     1      15.451  34.520  18.998  1.00  0.00    -0.393 OA
HETATM    3  H   LIG     1      15.260  33.881  18.262  1.00  0.00     0.210 HD
ENDBRANCH   1   2
BRANCH   1   4
HETATM    4  C   LIG     1      15.030  32.366  20.039  1.00  0.00     0.147 C 
HETATM    5 CL   LIG     1      14.544  31.955  18.370  1.00  0.00    -0.128 Cl
ENDBRANCH   1   4
BRANCH   1   6
HETATM    6  C   LIG     1      15.263  34.529  21.403  1.00  0.00     0.147 C 
HETATM    7 CL   LIG     1      16.643  35.065  22.404  1.00  0.00    -0.128 Cl
ENDBRANCH   1   6
TORSDOF 3
ENDMDL
MODEL 13
REMARK VINA RESULT:      -3.2      4.218      5.259
REMARK  3 active torsions:
REMARK  status: ('A' for Active; 'I' for Inactive)
REMARK    1  A    between atoms: O_1  and  C_2 
REMARK    2  A    between atoms: C_2  and  C_5 
REMARK    3  A    between atoms: C_2  and  C_3 
ROOT
HETATM    1  C   LIG     1      18.342  38.201  21.149  1.00  0.00     0.145 C 
ENDROOT
BRANCH   1   2
HETATM    2  O   LIG     1      17.184  38.642  21.810  1.00  0.00    -0.393 OA
HETATM    3  H   LIG     1      17.098  39.614  21.619  1.00  0.00     0.210 HD
ENDBRANCH   1   2
BRANCH   1   4
HETATM    4  C   LIG     1      18.899  39.295  20.218  1.00  0.00     0.147 C 
HETATM    5 CL   LIG     1      20.442  38.836  19.445  1.00  0.00    -0.128 Cl
ENDBRANCH   1   4
BRANCH   1   6
HETATM    6  C   LIG     1      18.062  36.876  20.420  1.00  0.00     0.147 C 
HETATM    7 CL   LIG     1      17.228  35.674  21.446  1.00  0.00    -0.128 Cl
ENDBRANCH   1   6
TORSDOF 3
ENDMDL
MODEL 14
REMARK VINA RESULT:      -3.2      4.398      4.862
REMARK  3 active torsions:
REMARK  status: ('A' for Active; 'I' for Inactive)
REMARK    1  A    between atoms: O_1  and  C_2 
REMARK    2  A    between atoms: C_2  and  C_5 
REMARK    3  A    between atoms: C_2  and  C_3 
ROOT
HETATM    1  C   LIG     1      17.164  36.106  21.115  1.00  0.00     0.145 C 
ENDROOT
BRANCH   1   2
HETATM    2  O   LIG     1      16.731  35.437  19.959  1.00  0.00    -0.393 OA
HETATM    3  H   LIG     1      15.812  35.106  20.147  1.00  0.00     0.210 HD
ENDBRANCH   1   2
BRANCH   1   4
HETATM    4  C   LIG     1      15.968  36.540  21.985  1.00  0.00     0.147 C 
HETATM    5 CL   LIG     1      16.208  38.132  22.757  1.00  0.00    -0.128 Cl
ENDBRANCH   1   4
BRANCH   1   6
HETATM    6  C   LIG     1      18.085  37.277  20.732  1.00  0.00     0.147 C 
HETATM    7 CL   LIG     1      19.309  36.834  19.508  1.00  0.00    -0.128 Cl
ENDBRANCH   1   6
TORSDOF 3
ENDMDL
MODEL 15
REMARK VINA RESULT:      -3.1      9.819     10.446
REMARK  3 active torsions:
REMARK  status: ('A' for Active; 'I' for Inactive)
REMARK    1  A    between atoms: O_1  and  C_2 
REMARK    2  A    between atoms: C_2  and  C_5 
REMARK    3  A    between atoms: C_2  and  C_3 
ROOT
HETATM    1  C   LIG     1      15.459  33.273  16.164  1.00  0.00     0.145 C 
ENDROOT
BRANCH   1   2
HETATM    2  O   LIG     1      15.962  34.565  16.388  1.00  0.00    -0.393 OA
HETATM    3  H   LIG     1      16.074  34.988  15.496  1.00  0.00     0.210 HD
ENDBRANCH   1   2
BRANCH   1   4
HETATM    4  C   LIG     1      15.025  32.611  17.486  1.00  0.00     0.147 C 
HETATM    5 CL   LIG     1      13.877  31.264  17.249  1.00  0.00    -0.128 Cl
ENDBRANCH   1   4
BRANCH   1   6
HETATM    6  C   LIG     1      16.484  32.436  15.381  1.00  0.00     0.147 C 
HETATM    7 CL   LIG     1      15.764  31.558  14.001  1.00  0.00    -0.128 Cl
ENDBRANCH   1   6
TORSDOF 3
ENDMDL
MODEL 16
REMARK VINA RESULT:      -3.1      9.790     10.606
REMARK  3 active torsions:
REMARK  status: ('A' for Active; 'I' for Inactive)
REMARK    1  A    between atoms: O_1  and  C_2 
REMARK    2  A    between atoms: C_2  and  C_5 
REMARK    3  A    between atoms: C_2  and  C_3 
ROOT
HETATM    1  C   LIG     1      15.702  33.013  16.326  1.00  0.00     0.145 C 
ENDROOT
BRANCH   1   2
HETATM    2  O   LIG     1      15.860  34.404  16.213  1.00  0.00    -0.393 OA
HETATM    3  H   LIG     1      14.988  34.767  15.905  1.00  0.00     0.210 HD
ENDBRANCH   1   2
BRANCH   1   4
HETATM    4  C   LIG     1      15.920  32.319  14.968  1.00  0.00     0.147 C 
HETATM    5 CL   LIG     1      14.984  30.808  14.797  1.00  0.00    -0.128 Cl
ENDBRANCH   1   4
BRANCH   1   6
HETATM    6  C   LIG     1      14.338  32.686  16.957  1.00  0.00     0.147 C 
HETATM    7 CL   LIG     1      14.474  31.776  18.489  1.00  0.00    -0.128 Cl
ENDBRANCH   1   6
TORSDOF 3
ENDMDL
MODEL 17
REMARK VINA RESULT:      -3.1      5.501      7.072
REMARK  3 active torsions:
REMARK  status: ('A' for Active; 'I' for Inactive)
REMARK    1  A    between atoms: O_1  and  C_2 
REMARK    2  A    between atoms: C_2  and  C_5 
REMARK    3  A    between atoms: C_2  and  C_3 
ROOT
HETATM    1  C   LIG     1      19.559  38.745  19.052  1.00  0.00     0.145 C 
ENDROOT
BRANCH   1   2
HETATM    2  O   LIG     1      20.043  39.565  20.085  1.00  0.00    -0.393 OA
HETATM    3  H   LIG     1      19.669  40.472  19.929  1.00  0.00     0.210 HD
ENDBRANCH   1   2
BRANCH   1   4
HETATM    4  C   LIG     1      18.481  39.474  18.226  1.00  0.00     0.147 C 
HETATM    5 CL   LIG     1      18.876  39.561  16.487  1.00  0.00    -0.128 Cl
ENDBRANCH   1   4
BRANCH   1   6
HETATM    6  C   LIG     1      19.072  37.404  19.627  1.00  0.00     0.147 C 
HETATM    7 CL   LIG     1      17.994  37.597  21.039  1.00  0.00    -0.128 Cl
ENDBRANCH   1   6
TORSDOF 3
ENDMDL
MODEL 18
REMARK VINA RESULT:      -3.1     12.667     13.110
REMARK  3 active torsions:
REMARK  status: ('A' for Active; 'I' for Inactive)
REMARK    1  A    between atoms: O_1  and  C_2 
REMARK    2  A    between atoms: C_2  and  C_5 
REMARK    3  A    between atoms: C_2  and  C_3 
ROOT
HETATM    1  C   LIG     1      14.945  29.947  14.489  1.00  0.00     0.145 C 
ENDROOT
BRANCH   1   2
HETATM    2  O   LIG     1      15.306  29.549  13.192  1.00  0.00    -0.393 OA
HETATM    3  H   LIG     1      14.549  29.792  12.596  1.00  0.00     0.210 HD
ENDBRANCH   1   2
BRANCH   1   4
HETATM    4  C   LIG     1      13.424  29.827  14.701  1.00  0.00     0.147 C 
HETATM    5 CL   LIG     1      12.853  30.681  16.162  1.00  0.00    -0.128 Cl
ENDBRANCH   1   4
BRANCH   1   6
HETATM    6  C   LIG     1      15.484  31.358  14.778  1.00  0.00     0.147 C 
HETATM    7 CL   LIG     1      16.145  32.165  13.328  1.00  0.00    -0.128 Cl
ENDBRANCH   1   6
TORSDOF 3
ENDMDL
MODEL 19
REMARK VINA RESULT:      -3.0     12.427     13.224
REMARK  3 active torsions:
REMARK  status: ('A' for Active; 'I' for Inactive)
REMARK    1  A    between atoms: O_1  and  C_2 
REMARK    2  A    between atoms: C_2  and  C_5 
REMARK    3  A    between atoms: C_2  and  C_3 
ROOT
HETATM    1  C   LIG     1      13.442  30.003  14.497  1.00  0.00     0.145 C 
ENDROOT
BRANCH   1   2
HETATM    2  O   LIG     1      12.791  28.804  14.163  1.00  0.00    -0.393 OA
HETATM    3  H   LIG     1      11.961  28.767  14.707  1.00  0.00     0.210 HD
ENDBRANCH   1   2
BRANCH   1   4
HETATM    4  C   LIG     1      14.967  29.871  14.322  1.00  0.00     0.147 C 
HETATM    5 CL   LIG     1      15.684  31.227  13.407  1.00  0.00    -0.128 Cl
ENDBRANCH   1   4
BRANCH   1   6
HETATM    6  C   LIG     1      13.035  30.447  15.912  1.00  0.00     0.147 C 
HETATM    7 CL   LIG     1      14.185  31.605  16.640  1.00  0.00    -0.128 Cl
ENDBRANCH   1   6
TORSDOF 3
ENDMDL
MODEL 20
REMARK VINA RESULT:      -3.0      4.865      5.423
REMARK  3 active torsions:
REMARK  status: ('A' for Active; 'I' for Inactive)
REMARK    1  A    between atoms: O_1  and  C_2 
REMARK    2  A    between atoms: C_2  and  C_5 
REMARK    3  A    between atoms: C_2  and  C_3 
ROOT
HETATM    1  C   LIG     1      19.413  38.867  20.006  1.00  0.00     0.145 C 
ENDROOT
BRANCH   1   2
HETATM    2  O   LIG     1      18.671  39.830  19.303  1.00  0.00    -0.393 OA
HETATM    3  H   LIG     1      18.356  39.394  18.467  1.00  0.00     0.210 HD
ENDBRANCH   1   2
BRANCH   1   4
HETATM    4  C   LIG     1      19.204  37.463  19.409  1.00  0.00     0.147 C 
HETATM    5 CL   LIG     1      18.132  36.434  20.401  1.00  0.00    -0.128 Cl
ENDBRANCH   1   4
BRANCH   1   6
HETATM    6  C   LIG     1      19.083  38.938  21.506  1.00  0.00     0.147 C 
HETATM    7 CL   LIG     1      17.343  39.185  21.830  1.00  0.00    -0.128 Cl
ENDBRANCH   1   6
TORSDOF 3
ENDMDL
