MODEL 1
REMARK VINA RESULT:      -4.2      0.000      0.000
REMARK  2 active torsions:
REMARK  status: ('A' for Active; 'I' for Inactive)
REMARK    1  A    between atoms: C_2  and  C_5 
REMARK    2  A    between atoms: C_2  and  O_3 
ROOT
HETATM    1  O   LIG     1      17.099  38.589  25.451  1.00  0.00    -0.260 OA
HETATM    2  C   LIG     1      17.461  37.397  25.246  1.00  0.00     0.281 C 
ENDROOT
BRANCH   2   3
HETATM    3  C   LIG     1      18.338  36.704  26.203  1.00  0.00     0.072 C 
HETATM    4  C   LIG     1      18.288  35.387  26.398  1.00  0.00     0.017 C 
ENDBRANCH   2   3
BRANCH   2   5
HETATM    5  O   LIG     1      17.035  36.715  24.104  1.00  0.00    -0.323 OA
HETATM    6  C   LIG     1      16.487  37.380  22.973  1.00  0.00     0.213 C 
ENDBRANCH   2   5
TORSDOF 2
ENDMDL
MODEL 2
REMARK VINA RESULT:      -3.8      1.702      3.760
REMARK  2 active torsions:
REMARK  status: ('A' for Active; 'I' for Inactive)
REMARK    1  A    between atoms: C_2  and  C_5 
REMARK    2  A    between atoms: C_2  and  O_3 
ROOT
HETATM    1  O   LIG     1      15.912  37.015  22.362  1.00  0.00    -0.260 OA
HETATM    2  C   LIG     1      16.419  37.925  23.076  1.00  0.00     0.281 C 
ENDROOT
BRANCH   2   3
HETATM    3  C   LIG     1      17.227  38.993  22.468  1.00  0.00     0.072 C 
HETATM    4  C   LIG     1      18.077  38.768  21.468  1.00  0.00     0.017 C 
ENDBRANCH   2   3
BRANCH   2   5
HETATM    5  O   LIG     1      16.220  37.933  24.459  1.00  0.00    -0.323 OA
HETATM    6  C   LIG     1      17.296  37.958  25.389  1.00  0.00     0.213 C 
ENDBRANCH   2   5
TORSDOF 2
ENDMDL
MODEL 3
REMARK VINA RESULT:      -3.8      5.747      6.810
REMARK  2 active torsions:
REMARK  status: ('A' for Active; 'I' for Inactive)
REMARK    1  A    between atoms: C_2  and  C_5 
REMARK    2  A    between atoms: C_2  and  O_3 
ROOT
HETATM    1  O   LIG     1      20.431  39.365  19.537  1.00  0.00    -0.260 OA
HETATM    2  C   LIG     1      19.415  38.864  18.979  1.00  0.00     0.281 C 
ENDROOT
BRANCH   2   3
HETATM    3  C   LIG     1      19.051  37.457  19.207  1.00  0.00     0.072 C 
HETATM    4  C   LIG     1      18.366  37.058  20.277  1.00  0.00     0.017 C 
ENDBRANCH   2   3
BRANCH   2   5
HETATM    5  O   LIG     1      18.618  39.640  18.134  1.00  0.00    -0.323 OA
HETATM    6  C   LIG     1      18.759  39.624  16.718  1.00  0.00     0.213 C 
ENDBRANCH   2   5
TORSDOF 2
ENDMDL
MODEL 4
REMARK VINA RESULT:      -3.7      2.261      3.190
REMARK  2 active torsions:
REMARK  status: ('A' for Active; 'I' for Inactive)
REMARK    1  A    between atoms: C_2  and  C_5 
REMARK    2  A    between atoms: C_2  and  O_3 
ROOT
HETATM    1  O   LIG     1      16.311  38.078  24.600  1.00  0.00    -0.260 OA
HETATM    2  C   LIG     1      16.765  37.499  23.575  1.00  0.00     0.281 C 
ENDROOT
BRANCH   2   3
HETATM    3  C   LIG     1      16.961  38.239  22.319  1.00  0.00     0.072 C 
HETATM    4  C   LIG     1      18.069  38.930  22.059  1.00  0.00     0.017 C 
ENDBRANCH   2   3
BRANCH   2   5
HETATM    5  O   LIG     1      17.090  36.140  23.616  1.00  0.00    -0.323 OA
HETATM    6  C   LIG     1      16.871  35.266  22.515  1.00  0.00     0.213 C 
ENDBRANCH   2   5
TORSDOF 2
ENDMDL
MODEL 5
REMARK VINA RESULT:      -3.6      1.758      3.242
REMARK  2 active torsions:
REMARK  status: ('A' for Active; 'I' for Inactive)
REMARK    1  A    between atoms: C_2  and  C_5 
REMARK    2  A    between atoms: C_2  and  O_3 
ROOT
HETATM    1  O   LIG     1      16.596  39.067  22.401  1.00  0.00    -0.260 OA
HETATM    2  C   LIG     1      16.396  37.942  22.939  1.00  0.00     0.281 C 
ENDROOT
BRANCH   2   3
HETATM    3  C   LIG     1      16.283  36.726  22.119  1.00  0.00     0.072 C 
HETATM    4  C   LIG     1      16.784  35.553  22.502  1.00  0.00     0.017 C 
ENDBRANCH   2   3
BRANCH   2   5
HETATM    5  O   LIG     1      16.278  37.833  24.327  1.00  0.00    -0.323 OA
HETATM    6  C   LIG     1      17.364  38.082  25.211  1.00  0.00     0.213 C 
ENDBRANCH   2   5
TORSDOF 2
ENDMDL
MODEL 6
REMARK VINA RESULT:      -3.5      2.312      2.851
REMARK  2 active torsions:
REMARK  status: ('A' for Active; 'I' for Inactive)
REMARK    1  A    between atoms: C_2  and  C_5 
REMARK    2  A    between atoms: C_2  and  O_3 
ROOT
HETATM    1  O   LIG     1      16.042  37.978  24.251  1.00  0.00    -0.260 OA
HETATM    2  C   LIG     1      16.632  37.424  23.282  1.00  0.00     0.281 C 
ENDROOT
BRANCH   2   3
HETATM    3  C   LIG     1      16.998  36.000  23.341  1.00  0.00     0.072 C 
HETATM    4  C   LIG     1      16.942  35.201  22.277  1.00  0.00     0.017 C 
ENDBRANCH   2   3
BRANCH   2   5
HETATM    5  O   LIG     1      16.949  38.155  22.135  1.00  0.00    -0.323 OA
HETATM    6  C   LIG     1      18.141  38.924  22.020  1.00  0.00     0.213 C 
ENDBRANCH   2   5
TORSDOF 2
ENDMDL
MODEL 7
REMARK VINA RESULT:      -3.5      8.869     10.511
REMARK  2 active torsions:
REMARK  status: ('A' for Active; 'I' for Inactive)
REMARK    1  A    between atoms: C_2  and  C_5 
REMARK    2  A    between atoms: C_2  and  O_3 
ROOT
HETATM    1  O   LIG     1      14.334  32.856  16.964  1.00  0.00    -0.260 OA
HETATM    2  C   LIG     1      13.933  31.702  17.281  1.00  0.00     0.281 C 
ENDROOT
BRANCH   2   3
HETATM    3  C   LIG     1      13.261  30.843  16.294  1.00  0.00     0.072 C 
HETATM    4  C   LIG     1      13.868  30.405  15.193  1.00  0.00     0.017 C 
ENDBRANCH   2   3
BRANCH   2   5
HETATM    5  O   LIG     1      14.120  31.220  18.579  1.00  0.00    -0.323 OA
HETATM    6  C   LIG     1      14.963  31.869  19.524  1.00  0.00     0.213 C 
ENDBRANCH   2   5
TORSDOF 2
ENDMDL
MODEL 8
REMARK VINA RESULT:      -3.5      8.941      9.881
REMARK  2 active torsions:
REMARK  status: ('A' for Active; 'I' for Inactive)
REMARK    1  A    between atoms: C_2  and  C_5 
REMARK    2  A    between atoms: C_2  and  O_3 
ROOT
HETATM    1  O   LIG     1      14.330  31.236  18.959  1.00  0.00    -0.260 OA
HETATM    2  C   LIG     1      14.344  32.011  17.962  1.00  0.00     0.281 C 
ENDROOT
BRANCH   2   3
HETATM    3  C   LIG     1      13.367  31.852  16.874  1.00  0.00     0.072 C 
HETATM    4  C   LIG     1      13.169  30.692  16.251  1.00  0.00     0.017 C 
ENDBRANCH   2   3
BRANCH   2   5
HETATM    5  O   LIG     1      15.289  33.036  17.877  1.00  0.00    -0.323 OA
HETATM    6  C   LIG     1      15.158  34.127  16.973  1.00  0.00     0.213 C 
ENDBRANCH   2   5
TORSDOF 2
ENDMDL
MODEL 9
REMARK VINA RESULT:      -3.5      4.781      6.067
REMARK  2 active torsions:
REMARK  status: ('A' for Active; 'I' for Inactive)
REMARK    1  A    between atoms: C_2  and  C_5 
REMARK    2  A    between atoms: C_2  and  O_3 
ROOT
HETATM    1  O   LIG     1      18.833  39.734  18.451  1.00  0.00    -0.260 OA
HETATM    2  C   LIG     1      19.039  39.167  19.560  1.00  0.00     0.281 C 
ENDROOT
BRANCH   2   3
HETATM    3  C   LIG     1      19.528  37.780  19.614  1.00  0.00     0.072 C 
HETATM    4  C   LIG     1      18.738  36.732  19.388  1.00  0.00     0.017 C 
ENDBRANCH   2   3
BRANCH   2   5
HETATM    5  O   LIG     1      18.806  39.848  20.757  1.00  0.00    -0.323 OA
HETATM    6  C   LIG     1      18.506  39.177  21.975  1.00  0.00     0.213 C 
ENDBRANCH   2   5
TORSDOF 2
ENDMDL
MODEL 10
REMARK VINA RESULT:      -3.4      7.356      8.646
REMARK  2 active torsions:
REMARK  status: ('A' for Active; 'I' for Inactive)
REMARK    1  A    between atoms: C_2  and  C_5 
REMARK    2  A    between atoms: C_2  and  O_3 
ROOT
HETATM    1  O   LIG     1      15.578  32.961  17.555  1.00  0.00    -0.260 OA
HETATM    2  C   LIG     1      14.989  32.289  18.447  1.00  0.00     0.281 C 
ENDROOT
BRANCH   2   3
HETATM    3  C   LIG     1      15.340  32.454  19.866  1.00  0.00     0.072 C 
HETATM    4  C   LIG     1      15.590  33.644  20.410  1.00  0.00     0.017 C 
ENDBRANCH   2   3
BRANCH   2   5
HETATM    5  O   LIG     1      13.990  31.375  18.101  1.00  0.00    -0.323 OA
HETATM    6  C   LIG     1      13.674  31.060  16.750  1.00  0.00     0.213 C 
ENDBRANCH   2   5
TORSDOF 2
ENDMDL
MODEL 11
REMARK VINA RESULT:      -3.4      8.350      9.010
REMARK  2 active torsions:
REMARK  status: ('A' for Active; 'I' for Inactive)
REMARK    1  A    between atoms: C_2  and  C_5 
REMARK    2  A    between atoms: C_2  and  O_3 
ROOT
HETATM    1  O   LIG     1      13.716  31.728  17.645  1.00  0.00    -0.260 OA
HETATM    2  C   LIG     1      14.774  32.297  18.031  1.00  0.00     0.281 C 
ENDROOT
BRANCH   2   3
HETATM    3  C   LIG     1      15.246  32.146  19.416  1.00  0.00     0.072 C 
HETATM    4  C   LIG     1      14.863  31.140  20.199  1.00  0.00     0.017 C 
ENDBRANCH   2   3
BRANCH   2   5
HETATM    5  O   LIG     1      15.517  33.083  17.147  1.00  0.00    -0.323 OA
HETATM    6  C   LIG     1      15.807  32.674  15.815  1.00  0.00     0.213 C 
ENDBRANCH   2   5
TORSDOF 2
ENDMDL
MODEL 12
REMARK VINA RESULT:      -3.4      4.151      4.971
REMARK  2 active torsions:
REMARK  status: ('A' for Active; 'I' for Inactive)
REMARK    1  A    between atoms: C_2  and  C_5 
REMARK    2  A    between atoms: C_2  and  O_3 
ROOT
HETATM    1  O   LIG     1      19.190  39.749  19.970  1.00  0.00    -0.260 OA
HETATM    2  C   LIG     1      18.604  38.933  20.734  1.00  0.00     0.281 C 
ENDROOT
BRANCH   2   3
HETATM    3  C   LIG     1      18.166  39.344  22.077  1.00  0.00     0.072 C 
HETATM    4  C   LIG     1      17.079  38.843  22.661  1.00  0.00     0.017 C 
ENDBRANCH   2   3
BRANCH   2   5
HETATM    5  O   LIG     1      18.362  37.622  20.317  1.00  0.00    -0.323 OA
HETATM    6  C   LIG     1      19.261  36.905  19.479  1.00  0.00     0.213 C 
ENDBRANCH   2   5
TORSDOF 2
ENDMDL
MODEL 13
REMARK VINA RESULT:      -3.4      5.064      5.811
REMARK  2 active torsions:
REMARK  status: ('A' for Active; 'I' for Inactive)
REMARK    1  A    between atoms: C_2  and  C_5 
REMARK    2  A    between atoms: C_2  and  O_3 
ROOT
HETATM    1  O   LIG     1      18.150  36.519  18.491  1.00  0.00    -0.260 OA
HETATM    2  C   LIG     1      18.654  36.947  19.567  1.00  0.00     0.281 C 
ENDROOT
BRANCH   2   3
HETATM    3  C   LIG     1      17.897  36.887  20.827  1.00  0.00     0.072 C 
HETATM    4  C   LIG     1      17.208  35.811  21.199  1.00  0.00     0.017 C 
ENDBRANCH   2   3
BRANCH   2   5
HETATM    5  O   LIG     1      19.942  37.487  19.578  1.00  0.00    -0.323 OA
HETATM    6  C   LIG     1      20.188  38.887  19.526  1.00  0.00     0.213 C 
ENDBRANCH   2   5
TORSDOF 2
ENDMDL
MODEL 14
REMARK VINA RESULT:      -3.3      4.303      5.020
REMARK  2 active torsions:
REMARK  status: ('A' for Active; 'I' for Inactive)
REMARK    1  A    between atoms: C_2  and  C_5 
REMARK    2  A    between atoms: C_2  and  O_3 
ROOT
HETATM    1  O   LIG     1      17.526  38.756  21.827  1.00  0.00    -0.260 OA
HETATM    2  C   LIG     1      18.376  38.338  20.992  1.00  0.00     0.281 C 
ENDROOT
BRANCH   2   3
HETATM    3  C   LIG     1      18.250  36.998  20.400  1.00  0.00     0.072 C 
HETATM    4  C   LIG     1      17.411  36.079  20.875  1.00  0.00     0.017 C 
ENDBRANCH   2   3
BRANCH   2   5
HETATM    5  O   LIG     1      19.453  39.145  20.615  1.00  0.00    -0.323 OA
HETATM    6  C   LIG     1      20.288  38.840  19.504  1.00  0.00     0.213 C 
ENDBRANCH   2   5
TORSDOF 2
ENDMDL
MODEL 15
REMARK VINA RESULT:      -3.3      3.483      5.051
REMARK  2 active torsions:
REMARK  status: ('A' for Active; 'I' for Inactive)
REMARK    1  A    between atoms: C_2  and  C_5 
REMARK    2  A    between atoms: C_2  and  O_3 
ROOT
HETATM    1  O   LIG     1      18.006  37.324  20.925  1.00  0.00    -0.260 OA
HETATM    2  C   LIG     1      18.155  38.543  21.218  1.00  0.00     0.281 C 
ENDROOT
BRANCH   2   3
HETATM    3  C   LIG     1      19.103  39.384  20.472  1.00  0.00     0.072 C 
HETATM    4  C   LIG     1      20.057  38.875  19.696  1.00  0.00     0.017 C 
ENDBRANCH   2   3
BRANCH   2   5
HETATM    5  O   LIG     1      17.419  39.114  22.259  1.00  0.00    -0.323 OA
HETATM    6  C   LIG     1      17.232  38.467  23.513  1.00  0.00     0.213 C 
ENDBRANCH   2   5
TORSDOF 2
ENDMDL
MODEL 16
REMARK VINA RESULT:      -3.3      4.171      5.369
REMARK  2 active torsions:
REMARK  status: ('A' for Active; 'I' for Inactive)
REMARK    1  A    between atoms: C_2  and  C_5 
REMARK    2  A    between atoms: C_2  and  O_3 
ROOT
HETATM    1  O   LIG     1      18.467  36.459  19.140  1.00  0.00    -0.260 OA
HETATM    2  C   LIG     1      18.395  37.213  20.150  1.00  0.00     0.281 C 
ENDROOT
BRANCH   2   3
HETATM    3  C   LIG     1      19.195  38.445  20.226  1.00  0.00     0.072 C 
HETATM    4  C   LIG     1      18.879  39.458  21.030  1.00  0.00     0.017 C 
ENDBRANCH   2   3
BRANCH   2   5
HETATM    5  O   LIG     1      17.552  36.889  21.216  1.00  0.00    -0.323 OA
HETATM    6  C   LIG     1      17.107  35.561  21.467  1.00  0.00     0.213 C 
ENDBRANCH   2   5
TORSDOF 2
ENDMDL
MODEL 17
REMARK VINA RESULT:      -3.3     12.567     13.024
REMARK  2 active torsions:
REMARK  status: ('A' for Active; 'I' for Inactive)
REMARK    1  A    between atoms: C_2  and  C_5 
REMARK    2  A    between atoms: C_2  and  O_3 
ROOT
HETATM    1  O   LIG     1      14.842  28.862  13.932  1.00  0.00    -0.260 OA
HETATM    2  C   LIG     1      15.076  30.077  14.184  1.00  0.00     0.281 C 
ENDROOT
BRANCH   2   3
HETATM    3  C   LIG     1      14.378  30.765  15.281  1.00  0.00     0.072 C 
HETATM    4  C   LIG     1      13.119  30.488  15.615  1.00  0.00     0.017 C 
ENDBRANCH   2   3
BRANCH   2   5
HETATM    5  O   LIG     1      16.006  30.791  13.423  1.00  0.00    -0.323 OA
HETATM    6  C   LIG     1      16.158  32.202  13.523  1.00  0.00     0.213 C 
ENDBRANCH   2   5
TORSDOF 2
ENDMDL
MODEL 18
REMARK VINA RESULT:      -3.3      4.066      4.751
REMARK  2 active torsions:
REMARK  status: ('A' for Active; 'I' for Inactive)
REMARK    1  A    between atoms: C_2  and  C_5 
REMARK    2  A    between atoms: C_2  and  O_3 
ROOT
HETATM    1  O   LIG     1      18.049  36.314  19.770  1.00  0.00    -0.260 OA
HETATM    2  C   LIG     1      17.523  36.420  20.913  1.00  0.00     0.281 C 
ENDROOT
BRANCH   2   3
HETATM    3  C   LIG     1      16.903  35.256  21.565  1.00  0.00     0.072 C 
HETATM    4  C   LIG     1      16.023  34.471  20.946  1.00  0.00     0.017 C 
ENDBRANCH   2   3
BRANCH   2   5
HETATM    5  O   LIG     1      17.519  37.648  21.578  1.00  0.00    -0.323 OA
HETATM    6  C   LIG     1      18.321  38.748  21.164  1.00  0.00     0.213 C 
ENDBRANCH   2   5
TORSDOF 2
ENDMDL
MODEL 19
REMARK VINA RESULT:      -3.2      9.875     11.414
REMARK  2 active torsions:
REMARK  status: ('A' for Active; 'I' for Inactive)
REMARK    1  A    between atoms: C_2  and  C_5 
REMARK    2  A    between atoms: C_2  and  O_3 
ROOT
HETATM    1  O   LIG     1      12.788  31.420  17.178  1.00  0.00    -0.260 OA
HETATM    2  C   LIG     1      13.703  31.295  16.318  1.00  0.00     0.281 C 
ENDROOT
BRANCH   2   3
HETATM    3  C   LIG     1      13.576  30.323  15.221  1.00  0.00     0.072 C 
HETATM    4  C   LIG     1      14.590  30.012  14.416  1.00  0.00     0.017 C 
ENDBRANCH   2   3
BRANCH   2   5
HETATM    5  O   LIG     1      14.856  32.081  16.392  1.00  0.00    -0.323 OA
HETATM    6  C   LIG     1      14.830  33.447  16.791  1.00  0.00     0.213 C 
ENDBRANCH   2   5
TORSDOF 2
ENDMDL
MODEL 20
REMARK VINA RESULT:      -3.2      8.624     10.006
REMARK  2 active torsions:
REMARK  status: ('A' for Active; 'I' for Inactive)
REMARK    1  A    between atoms: C_2  and  C_5 
REMARK    2  A    between atoms: C_2  and  O_3 
ROOT
HETATM    1  O   LIG     1      15.373  34.574  16.440  1.00  0.00    -0.260 OA
HETATM    2  C   LIG     1      15.321  33.315  16.513  1.00  0.00     0.281 C 
ENDROOT
BRANCH   2   3
HETATM    3  C   LIG     1      16.060  32.476  15.557  1.00  0.00     0.072 C 
HETATM    4  C   LIG     1      15.485  31.482  14.882  1.00  0.00     0.017 C 
ENDBRANCH   2   3
BRANCH   2   5
HETATM    5  O   LIG     1      14.558  32.695  17.506  1.00  0.00    -0.323 OA
HETATM    6  C   LIG     1      15.092  32.345  18.777  1.00  0.00     0.213 C 
ENDBRANCH   2   5
TORSDOF 2
ENDMDL
