REMARK  2 active torsions:
REMARK  status: ('A' for Active; 'I' for Inactive)
REMARK    1  A    between atoms: C_2  and  C_5 
REMARK    2  A    between atoms: C_2  and  O_3 
ROOT
HETATM    1  O   LIG     1      -0.115  -1.237  -0.436  1.00  0.00    -0.260 OA
HETATM    2  C   LIG     1      -0.106  -0.130   0.171  1.00  0.00     0.281 C 
ENDROOT
BRANCH   2   3
HETATM    3  C   LIG     1      -1.365   0.515   0.575  1.00  0.00     0.072 C 
HETATM    4  C   LIG     1      -2.558  -0.022   0.327  1.00  0.00     0.017 C 
ENDBRANCH   2   3
BRANCH   2   5
HETATM    5  O   LIG     1       1.103   0.503   0.470  1.00  0.00    -0.323 OA
HETATM    6  C   LIG     1       2.366  -0.049   0.117  1.00  0.00     0.213 C 
ENDBRANCH   2   5
TORSDOF 2
