REMARK  0 active torsions:
REMARK  status: ('A' for Active; 'I' for Inactive)
ROOT
HETATM    1  C   LIG     1       2.141   0.067  -0.054  1.00  0.00     0.010 C 
HETATM    2  C   LIG     1       0.663   0.275  -0.396  1.00  0.00    -0.018 C 
HETATM    3  C   LIG     1      -0.105   0.967   0.723  1.00  0.00     0.004 C 
HETATM    4  C   LIG     1      -1.555   0.530   0.549  1.00  0.00     0.000 C 
HETATM    5  C   LIG     1      -1.537  -0.740  -0.302  1.00  0.00     0.000 C 
HETATM    6  C   LIG     1      -0.076  -1.037  -0.621  1.00  0.00     0.004 C 
ENDROOT
TORSDOF 0
