MODEL 1
REMARK VINA RESULT:      -5.1      0.000      0.000
REMARK  0 active torsions:
REMARK  status: ('A' for Active; 'I' for Inactive)
ROOT
HETATM    1  C   LIG     1      17.578  38.110  23.864  1.00  0.00     0.010 C 
HETATM    2  C   LIG     1      17.329  37.140  25.022  1.00  0.00    -0.018 C 
HETATM    3  C   LIG     1      18.459  37.145  26.043  1.00  0.00     0.004 C 
HETATM    4  C   LIG     1      18.410  35.774  26.708  1.00  0.00     0.000 C 
HETATM    5  C   LIG     1      17.630  34.853  25.769  1.00  0.00     0.000 C 
HETATM    6  C   LIG     1      17.227  35.692  24.562  1.00  0.00     0.004 C 
ENDROOT
TORSDOF 0
ENDMDL
MODEL 2
REMARK VINA RESULT:      -4.8      0.865      3.054
REMARK  0 active torsions:
REMARK  status: ('A' for Active; 'I' for Inactive)
ROOT
HETATM    1  C   LIG     1      18.371  34.731  26.344  1.00  0.00     0.010 C 
HETATM    2  C   LIG     1      17.482  35.844  25.782  1.00  0.00    -0.018 C 
HETATM    3  C   LIG     1      17.225  35.692  24.289  1.00  0.00     0.004 C 
HETATM    4  C   LIG     1      16.933  37.099  23.782  1.00  0.00     0.000 C 
HETATM    5  C   LIG     1      17.493  38.071  24.821  1.00  0.00     0.000 C 
HETATM    6  C   LIG     1      18.109  37.224  25.930  1.00  0.00     0.004 C 
ENDROOT
TORSDOF 0
ENDMDL
MODEL 3
REMARK VINA RESULT:      -4.7      4.179      5.308
REMARK  0 active torsions:
REMARK  status: ('A' for Active; 'I' for Inactive)
ROOT
HETATM    1  C   LIG     1      20.320  38.854  19.470  1.00  0.00     0.010 C 
HETATM    2  C   LIG     1      18.925  38.324  19.814  1.00  0.00    -0.018 C 
HETATM    3  C   LIG     1      18.492  38.690  21.228  1.00  0.00     0.004 C 
HETATM    4  C   LIG     1      17.484  37.620  21.632  1.00  0.00     0.000 C 
HETATM    5  C   LIG     1      17.710  36.425  20.706  1.00  0.00     0.000 C 
HETATM    6  C   LIG     1      18.848  36.804  19.765  1.00  0.00     0.004 C 
ENDROOT
TORSDOF 0
ENDMDL
MODEL 4
REMARK VINA RESULT:      -4.7      4.329      5.538
REMARK  0 active torsions:
REMARK  status: ('A' for Active; 'I' for Inactive)
ROOT
HETATM    1  C   LIG     1      17.138  38.889  22.159  1.00  0.00     0.010 C 
HETATM    2  C   LIG     1      18.393  38.383  21.441  1.00  0.00    -0.018 C 
HETATM    3  C   LIG     1      18.959  39.404  20.462  1.00  0.00     0.004 C 
HETATM    4  C   LIG     1      19.718  38.589  19.422  1.00  0.00     0.000 C 
HETATM    5  C   LIG     1      19.191  37.157  19.508  1.00  0.00     0.000 C 
HETATM    6  C   LIG     1      18.126  37.143  20.599  1.00  0.00     0.004 C 
ENDROOT
TORSDOF 0
ENDMDL
MODEL 5
REMARK VINA RESULT:      -4.4      2.975      5.027
REMARK  0 active torsions:
REMARK  status: ('A' for Active; 'I' for Inactive)
ROOT
HETATM    1  C   LIG     1      16.905  37.754  23.316  1.00  0.00     0.010 C 
HETATM    2  C   LIG     1      17.354  38.206  21.924  1.00  0.00    -0.018 C 
HETATM    3  C   LIG     1      17.858  37.051  21.067  1.00  0.00     0.004 C 
HETATM    4  C   LIG     1      18.819  37.679  20.065  1.00  0.00     0.000 C 
HETATM    5  C   LIG     1      19.237  39.033  20.639  1.00  0.00     0.000 C 
HETATM    6  C   LIG     1      18.517  39.188  21.974  1.00  0.00     0.004 C 
ENDROOT
TORSDOF 0
ENDMDL
MODEL 6
REMARK VINA RESULT:      -4.4      3.763      4.904
REMARK  0 active torsions:
REMARK  status: ('A' for Active; 'I' for Inactive)
ROOT
HETATM    1  C   LIG     1      19.023  39.352  19.940  1.00  0.00     0.010 C 
HETATM    2  C   LIG     1      18.708  38.147  20.830  1.00  0.00    -0.018 C 
HETATM    3  C   LIG     1      18.352  36.903  20.026  1.00  0.00     0.004 C 
HETATM    4  C   LIG     1      17.478  36.061  20.949  1.00  0.00     0.000 C 
HETATM    5  C   LIG     1      16.941  36.999  22.030  1.00  0.00     0.000 C 
HETATM    6  C   LIG     1      17.505  38.384  21.733  1.00  0.00     0.004 C 
ENDROOT
TORSDOF 0
ENDMDL
MODEL 7
REMARK VINA RESULT:      -4.3      3.302      4.876
REMARK  0 active torsions:
REMARK  status: ('A' for Active; 'I' for Inactive)
ROOT
HETATM    1  C   LIG     1      16.738  35.487  22.201  1.00  0.00     0.010 C 
HETATM    2  C   LIG     1      17.045  36.824  21.521  1.00  0.00    -0.018 C 
HETATM    3  C   LIG     1      18.125  36.704  20.453  1.00  0.00     0.004 C 
HETATM    4  C   LIG     1      18.754  38.089  20.355  1.00  0.00     0.000 C 
HETATM    5  C   LIG     1      18.406  38.827  21.649  1.00  0.00     0.000 C 
HETATM    6  C   LIG     1      17.575  37.868  22.494  1.00  0.00     0.004 C 
ENDROOT
TORSDOF 0
ENDMDL
MODEL 8
REMARK VINA RESULT:      -4.2     10.884     12.132
REMARK  0 active torsions:
REMARK  status: ('A' for Active; 'I' for Inactive)
ROOT
HETATM    1  C   LIG     1      15.337  30.646  13.438  1.00  0.00     0.010 C 
HETATM    2  C   LIG     1      14.867  30.523  14.890  1.00  0.00    -0.018 C 
HETATM    3  C   LIG     1      13.386  30.186  15.000  1.00  0.00     0.004 C 
HETATM    4  C   LIG     1      12.947  30.722  16.357  1.00  0.00     0.000 C 
HETATM    5  C   LIG     1      13.988  31.759  16.782  1.00  0.00     0.000 C 
HETATM    6  C   LIG     1      15.028  31.821  15.669  1.00  0.00     0.004 C 
ENDROOT
TORSDOF 0
ENDMDL
MODEL 9
REMARK VINA RESULT:      -4.2     10.935     12.127
REMARK  0 active torsions:
REMARK  status: ('A' for Active; 'I' for Inactive)
ROOT
HETATM    1  C   LIG     1      13.049  32.027  16.849  1.00  0.00     0.010 C 
HETATM    2  C   LIG     1      13.977  31.008  16.183  1.00  0.00    -0.018 C 
HETATM    3  C   LIG     1      15.113  31.667  15.411  1.00  0.00     0.004 C 
HETATM    4  C   LIG     1      15.512  30.660  14.339  1.00  0.00     0.000 C 
HETATM    5  C   LIG     1      14.337  29.695  14.177  1.00  0.00     0.000 C 
HETATM    6  C   LIG     1      13.258  30.144  15.156  1.00  0.00     0.004 C 
ENDROOT
TORSDOF 0
ENDMDL
MODEL 10
REMARK VINA RESULT:      -4.1      1.575      2.919
REMARK  0 active torsions:
REMARK  status: ('A' for Active; 'I' for Inactive)
ROOT
HETATM    1  C   LIG     1      17.258  37.953  25.427  1.00  0.00     0.010 C 
HETATM    2  C   LIG     1      17.553  37.172  24.143  1.00  0.00    -0.018 C 
HETATM    3  C   LIG     1      16.734  37.664  22.957  1.00  0.00     0.004 C 
HETATM    4  C   LIG     1      16.630  36.470  22.014  1.00  0.00     0.000 C 
HETATM    5  C   LIG     1      16.931  35.222  22.844  1.00  0.00     0.000 C 
HETATM    6  C   LIG     1      17.211  35.693  24.266  1.00  0.00     0.004 C 
ENDROOT
TORSDOF 0
ENDMDL
MODEL 11
REMARK VINA RESULT:      -4.0     10.404     11.613
REMARK  0 active torsions:
REMARK  status: ('A' for Active; 'I' for Inactive)
ROOT
HETATM    1  C   LIG     1      15.232  29.714  14.251  1.00  0.00     0.010 C 
HETATM    2  C   LIG     1      14.552  30.941  14.866  1.00  0.00    -0.018 C 
HETATM    3  C   LIG     1      15.543  31.889  15.528  1.00  0.00     0.004 C 
HETATM    4  C   LIG     1      14.742  32.635  16.589  1.00  0.00     0.000 C 
HETATM    5  C   LIG     1      13.491  31.802  16.868  1.00  0.00     0.000 C 
HETATM    6  C   LIG     1      13.568  30.574  15.968  1.00  0.00     0.004 C 
ENDROOT
TORSDOF 0
ENDMDL
MODEL 12
REMARK VINA RESULT:      -3.9     11.324     12.429
REMARK  0 active torsions:
REMARK  status: ('A' for Active; 'I' for Inactive)
ROOT
HETATM    1  C   LIG     1      16.494  32.473  14.206  1.00  0.00     0.010 C 
HETATM    2  C   LIG     1      15.762  31.250  14.766  1.00  0.00    -0.018 C 
HETATM    3  C   LIG     1      15.109  30.409  13.677  1.00  0.00     0.004 C 
HETATM    4  C   LIG     1      13.954  29.687  14.361  1.00  0.00     0.000 C 
HETATM    5  C   LIG     1      13.644  30.459  15.644  1.00  0.00     0.000 C 
HETATM    6  C   LIG     1      14.622  31.628  15.702  1.00  0.00     0.004 C 
ENDROOT
TORSDOF 0
ENDMDL
MODEL 13
REMARK VINA RESULT:      -3.9     10.093     11.366
REMARK  0 active torsions:
REMARK  status: ('A' for Active; 'I' for Inactive)
ROOT
HETATM    1  C   LIG     1      14.929  32.522  17.840  1.00  0.00     0.010 C 
HETATM    2  C   LIG     1      14.445  32.127  16.443  1.00  0.00    -0.018 C 
HETATM    3  C   LIG     1      13.650  30.827  16.445  1.00  0.00     0.004 C 
HETATM    4  C   LIG     1      13.809  30.254  15.041  1.00  0.00     0.000 C 
HETATM    5  C   LIG     1      15.040  30.919  14.426  1.00  0.00     0.000 C 
HETATM    6  C   LIG     1      15.593  31.878  15.474  1.00  0.00     0.004 C 
ENDROOT
TORSDOF 0
ENDMDL
MODEL 14
REMARK VINA RESULT:      -3.9      9.879     11.136
REMARK  0 active torsions:
REMARK  status: ('A' for Active; 'I' for Inactive)
ROOT
HETATM    1  C   LIG     1      12.998  30.254  15.303  1.00  0.00     0.010 C 
HETATM    2  C   LIG     1      14.127  30.943  16.075  1.00  0.00    -0.018 C 
HETATM    3  C   LIG     1      13.633  32.113  16.916  1.00  0.00     0.004 C 
HETATM    4  C   LIG     1      14.835  33.038  17.068  1.00  0.00     0.000 C 
HETATM    5  C   LIG     1      15.817  32.678  15.953  1.00  0.00     0.000 C 
HETATM    6  C   LIG     1      15.183  31.543  15.156  1.00  0.00     0.004 C 
ENDROOT
TORSDOF 0
ENDMDL
MODEL 15
REMARK VINA RESULT:      -3.6     12.700     13.892
REMARK  0 active torsions:
REMARK  status: ('A' for Active; 'I' for Inactive)
ROOT
HETATM    1  C   LIG     1      14.911  31.099  15.053  1.00  0.00     0.010 C 
HETATM    2  C   LIG     1      14.506  29.987  14.082  1.00  0.00    -0.018 C 
HETATM    3  C   LIG     1      13.183  29.333  14.459  1.00  0.00     0.004 C 
HETATM    4  C   LIG     1      13.242  27.929  13.869  1.00  0.00     0.000 C 
HETATM    5  C   LIG     1      14.716  27.617  13.611  1.00  0.00     0.000 C 
HETATM    6  C   LIG     1      15.510  28.842  14.052  1.00  0.00     0.004 C 
ENDROOT
TORSDOF 0
ENDMDL
MODEL 16
REMARK VINA RESULT:      -3.4     12.550     13.848
REMARK  0 active torsions:
REMARK  status: ('A' for Active; 'I' for Inactive)
ROOT
HETATM    1  C   LIG     1      15.389  27.778  12.874  1.00  0.00     0.010 C 
HETATM    2  C   LIG     1      14.974  28.604  14.095  1.00  0.00    -0.018 C 
HETATM    3  C   LIG     1      13.464  28.784  14.195  1.00  0.00     0.004 C 
HETATM    4  C   LIG     1      13.261  30.072  14.984  1.00  0.00     0.000 C 
HETATM    5  C   LIG     1      14.572  30.856  14.900  1.00  0.00     0.000 C 
HETATM    6  C   LIG     1      15.533  30.020  14.062  1.00  0.00     0.004 C 
ENDROOT
TORSDOF 0
ENDMDL
MODEL 17
REMARK VINA RESULT:      -3.3     16.078     17.137
REMARK  0 active torsions:
REMARK  status: ('A' for Active; 'I' for Inactive)
ROOT
HETATM    1  C   LIG     1      22.405  23.396  37.203  1.00  0.00     0.010 C 
HETATM    2  C   LIG     1      21.448  23.720  36.052  1.00  0.00    -0.018 C 
HETATM    3  C   LIG     1      20.198  22.849  36.067  1.00  0.00     0.004 C 
HETATM    4  C   LIG     1      19.716  22.808  34.622  1.00  0.00     0.000 C 
HETATM    5  C   LIG     1      20.905  23.206  33.746  1.00  0.00     0.000 C 
HETATM    6  C   LIG     1      22.074  23.478  34.686  1.00  0.00     0.004 C 
ENDROOT
TORSDOF 0
ENDMDL
MODEL 18
REMARK VINA RESULT:      -3.3     10.799     12.068
REMARK  0 active torsions:
REMARK  status: ('A' for Active; 'I' for Inactive)
ROOT
HETATM    1  C   LIG     1      14.463  30.437  15.212  1.00  0.00     0.010 C 
HETATM    2  C   LIG     1      15.079  31.764  14.760  1.00  0.00    -0.018 C 
HETATM    3  C   LIG     1      15.872  31.630  13.466  1.00  0.00     0.004 C 
HETATM    4  C   LIG     1      16.897  32.758  13.501  1.00  0.00     0.000 C 
HETATM    5  C   LIG     1      17.024  33.197  14.960  1.00  0.00     0.000 C 
HETATM    6  C   LIG     1      16.072  32.323  15.769  1.00  0.00     0.004 C 
ENDROOT
TORSDOF 0
ENDMDL
MODEL 19
REMARK VINA RESULT:      -3.3      8.197      9.468
REMARK  0 active torsions:
REMARK  status: ('A' for Active; 'I' for Inactive)
ROOT
HETATM    1  C   LIG     1      13.744  30.885  16.341  1.00  0.00     0.010 C 
HETATM    2  C   LIG     1      13.901  32.053  17.320  1.00  0.00    -0.018 C 
HETATM    3  C   LIG     1      14.745  33.185  16.749  1.00  0.00     0.004 C 
HETATM    4  C   LIG     1      15.335  33.900  17.959  1.00  0.00     0.000 C 
HETATM    5  C   LIG     1      15.251  32.926  19.134  1.00  0.00     0.000 C 
HETATM    6  C   LIG     1      14.612  31.648  18.604  1.00  0.00     0.004 C 
ENDROOT
TORSDOF 0
ENDMDL
MODEL 20
REMARK VINA RESULT:      -3.2     15.860     16.746
REMARK  0 active torsions:
REMARK  status: ('A' for Active; 'I' for Inactive)
ROOT
HETATM    1  C   LIG     1      19.603  23.005  33.389  1.00  0.00     0.010 C 
HETATM    2  C   LIG     1      20.600  22.785  34.530  1.00  0.00    -0.018 C 
HETATM    3  C   LIG     1      20.168  23.464  35.823  1.00  0.00     0.004 C 
HETATM    4  C   LIG     1      21.457  23.718  36.597  1.00  0.00     0.000 C 
HETATM    5  C   LIG     1      22.602  23.657  35.585  1.00  0.00     0.000 C 
HETATM    6  C   LIG     1      21.975  23.366  34.226  1.00  0.00     0.004 C 
ENDROOT
TORSDOF 0
ENDMDL
