REMARK  0 active torsions:
REMARK  status: ('A' for Active; 'I' for Inactive)
ROOT
HETATM    1  O   LIG     1       2.262   1.393  -0.233  1.00  0.00    -0.265 OA
HETATM    2  C   LIG     1       1.138   0.833  -0.144  1.00  0.00     0.258 A 
HETATM    3  C   LIG     1       0.951  -0.601   0.144  1.00  0.00     0.113 A 
HETATM    4  C   LIG     1      -0.575  -0.750   0.140  1.00  0.00     0.037 A 
HETATM    5  C   LIG     1      -1.158   0.645  -0.157  1.00  0.00     0.179 A 
HETATM    6  O   LIG     1      -0.048   1.510  -0.308  1.00  0.00    -0.321 OA
ENDROOT
TORSDOF 0
