REMARK  0 active torsions:
REMARK  status: ('A' for Active; 'I' for Inactive)
ROOT
HETATM    1  S   LIG     1       2.625   1.360   0.141  1.00  0.00    -0.041 SA
HETATM    2  C   LIG     1       1.175   0.609   0.063  1.00  0.00     0.167 A 
HETATM    3  N   LIG     1      -0.045   1.280  -0.151  1.00  0.00    -0.366 N 
HETATM    4  C   LIG     1      -1.110   0.287  -0.158  1.00  0.00     0.141 A 
HETATM    5  C   LIG     1      -0.415  -1.078   0.076  1.00  0.00     0.141 A 
HETATM    6  N   LIG     1       1.005  -0.782   0.202  1.00  0.00    -0.366 N 
HETATM    7  H   LIG     1      -0.166   2.308  -0.281  1.00  0.00     0.161 HD
HETATM    8  H   LIG     1       1.763  -1.481   0.367  1.00  0.00     0.161 HD
ENDROOT
TORSDOF 0
