MODEL 1
REMARK VINA RESULT:      -3.7      0.000      0.000
REMARK  0 active torsions:
REMARK  status: ('A' for Active; 'I' for Inactive)
ROOT
HETATM    1  S   LIG     1      16.751  37.733  23.656  1.00  0.00    -0.041 SA
HETATM    2  C   LIG     1      17.367  36.824  24.867  1.00  0.00     0.167 A 
HETATM    3  N   LIG     1      17.331  35.416  24.887  1.00  0.00    -0.366 N 
HETATM    4  C   LIG     1      17.971  34.966  26.115  1.00  0.00     0.141 A 
HETATM    5  C   LIG     1      18.411  36.253  26.857  1.00  0.00     0.141 A 
HETATM    6  N   LIG     1      17.995  37.360  26.008  1.00  0.00    -0.366 N 
HETATM    7  H   LIG     1      16.917  34.802  24.152  1.00  0.00     0.161 HD
HETATM    8  H   LIG     1      18.138  38.374  26.212  1.00  0.00     0.161 HD
ENDROOT
TORSDOF 0
ENDMDL
MODEL 2
REMARK VINA RESULT:      -3.6      1.985      3.070
REMARK  0 active torsions:
REMARK  status: ('A' for Active; 'I' for Inactive)
ROOT
HETATM    1  S   LIG     1      17.908  34.880  26.207  1.00  0.00    -0.041 SA
HETATM    2  C   LIG     1      17.554  36.275  25.431  1.00  0.00     0.167 A 
HETATM    3  N   LIG     1      17.608  37.545  26.038  1.00  0.00    -0.366 N 
HETATM    4  C   LIG     1      17.229  38.537  25.042  1.00  0.00     0.141 A 
HETATM    5  C   LIG     1      16.931  37.741  23.747  1.00  0.00     0.141 A 
HETATM    6  N   LIG     1      17.160  36.342  24.081  1.00  0.00    -0.366 N 
HETATM    7  H   LIG     1      17.874  37.742  27.028  1.00  0.00     0.161 HD
HETATM    8  H   LIG     1      17.049  35.532  23.431  1.00  0.00     0.161 HD
ENDROOT
TORSDOF 0
ENDMDL
MODEL 3
REMARK VINA RESULT:      -3.5      4.940      5.596
REMARK  0 active torsions:
REMARK  status: ('A' for Active; 'I' for Inactive)
ROOT
HETATM    1  S   LIG     1      17.315  38.882  22.554  1.00  0.00    -0.041 SA
HETATM    2  C   LIG     1      18.316  38.578  21.298  1.00  0.00     0.167 A 
HETATM    3  N   LIG     1      18.271  37.399  20.527  1.00  0.00    -0.366 N 
HETATM    4  C   LIG     1      19.307  37.488  19.508  1.00  0.00     0.141 A 
HETATM    5  C   LIG     1      20.002  38.855  19.731  1.00  0.00     0.141 A 
HETATM    6  N   LIG     1      19.321  39.464  20.865  1.00  0.00    -0.366 N 
HETATM    7  H   LIG     1      17.612  36.602  20.663  1.00  0.00     0.161 HD
HETATM    8  H   LIG     1      19.541  40.396  21.281  1.00  0.00     0.161 HD
ENDROOT
TORSDOF 0
ENDMDL
MODEL 4
REMARK VINA RESULT:      -3.5      1.613      2.348
REMARK  0 active torsions:
REMARK  status: ('A' for Active; 'I' for Inactive)
ROOT
HETATM    1  S   LIG     1      16.326  36.546  22.086  1.00  0.00    -0.041 SA
HETATM    2  C   LIG     1      16.843  36.955  23.582  1.00  0.00     0.167 A 
HETATM    3  N   LIG     1      16.823  38.271  24.085  1.00  0.00    -0.366 N 
HETATM    4  C   LIG     1      17.357  38.242  25.440  1.00  0.00     0.141 A 
HETATM    5  C   LIG     1      17.710  36.760  25.723  1.00  0.00     0.141 A 
HETATM    6  N   LIG     1      17.357  36.032  24.513  1.00  0.00    -0.366 N 
HETATM    7  H   LIG     1      16.487  39.118  23.577  1.00  0.00     0.161 HD
HETATM    8  H   LIG     1      17.467  35.004  24.363  1.00  0.00     0.161 HD
ENDROOT
TORSDOF 0
ENDMDL
MODEL 5
REMARK VINA RESULT:      -3.4      4.854      5.344
REMARK  0 active torsions:
REMARK  status: ('A' for Active; 'I' for Inactive)
ROOT
HETATM    1  S   LIG     1      20.155  38.840  19.451  1.00  0.00    -0.041 SA
HETATM    2  C   LIG     1      19.017  38.637  20.607  1.00  0.00     0.167 A 
HETATM    3  N   LIG     1      18.746  39.583  21.615  1.00  0.00    -0.366 N 
HETATM    4  C   LIG     1      17.678  39.055  22.453  1.00  0.00     0.141 A 
HETATM    5  C   LIG     1      17.315  37.674  21.852  1.00  0.00     0.141 A 
HETATM    6  N   LIG     1      18.197  37.496  20.708  1.00  0.00    -0.366 N 
HETATM    7  H   LIG     1      19.226  40.500  21.742  1.00  0.00     0.161 HD
HETATM    8  H   LIG     1      18.217  36.667  20.074  1.00  0.00     0.161 HD
ENDROOT
TORSDOF 0
ENDMDL
MODEL 6
REMARK VINA RESULT:      -3.4      1.437      1.513
REMARK  0 active torsions:
REMARK  status: ('A' for Active; 'I' for Inactive)
ROOT
HETATM    1  S   LIG     1      17.091  38.819  22.462  1.00  0.00    -0.041 SA
HETATM    2  C   LIG     1      17.326  37.808  23.726  1.00  0.00     0.167 A 
HETATM    3  N   LIG     1      17.017  36.434  23.699  1.00  0.00    -0.366 N 
HETATM    4  C   LIG     1      17.361  35.869  24.996  1.00  0.00     0.141 A 
HETATM    5  C   LIG     1      17.919  37.047  25.834  1.00  0.00     0.141 A 
HETATM    6  N   LIG     1      17.860  38.214  24.964  1.00  0.00    -0.366 N 
HETATM    7  H   LIG     1      16.612  35.911  22.892  1.00  0.00     0.161 HD
HETATM    8  H   LIG     1      18.161  39.181  25.217  1.00  0.00     0.161 HD
ENDROOT
TORSDOF 0
ENDMDL
MODEL 7
REMARK VINA RESULT:      -3.3      4.929      5.822
REMARK  0 active torsions:
REMARK  status: ('A' for Active; 'I' for Inactive)
ROOT
HETATM    1  S   LIG     1      17.682  38.562  22.827  1.00  0.00    -0.041 SA
HETATM    2  C   LIG     1      18.479  38.424  21.406  1.00  0.00     0.167 A 
HETATM    3  N   LIG     1      19.365  39.399  20.907  1.00  0.00    -0.366 N 
HETATM    4  C   LIG     1      19.877  38.929  19.627  1.00  0.00     0.141 A 
HETATM    5  C   LIG     1      19.210  37.551  19.387  1.00  0.00     0.141 A 
HETATM    6  N   LIG     1      18.357  37.318  20.544  1.00  0.00    -0.366 N 
HETATM    7  H   LIG     1      19.611  40.300  21.371  1.00  0.00     0.161 HD
HETATM    8  H   LIG     1      17.760  36.476  20.703  1.00  0.00     0.161 HD
ENDROOT
TORSDOF 0
ENDMDL
MODEL 8
REMARK VINA RESULT:      -3.3      4.811      5.494
REMARK  0 active torsions:
REMARK  status: ('A' for Active; 'I' for Inactive)
ROOT
HETATM    1  S   LIG     1      16.802  35.499  21.272  1.00  0.00    -0.041 SA
HETATM    2  C   LIG     1      17.772  36.700  20.736  1.00  0.00     0.167 A 
HETATM    3  N   LIG     1      18.576  36.603  19.583  1.00  0.00    -0.366 N 
HETATM    4  C   LIG     1      19.293  37.861  19.427  1.00  0.00     0.141 A 
HETATM    5  C   LIG     1      18.845  38.752  20.613  1.00  0.00     0.141 A 
HETATM    6  N   LIG     1      17.898  37.949  21.374  1.00  0.00    -0.366 N 
HETATM    7  H   LIG     1      18.647  35.775  18.952  1.00  0.00     0.161 HD
HETATM    8  H   LIG     1      17.401  38.249  22.242  1.00  0.00     0.161 HD
ENDROOT
TORSDOF 0
ENDMDL
MODEL 9
REMARK VINA RESULT:      -3.2      2.325      3.347
REMARK  0 active torsions:
REMARK  status: ('A' for Active; 'I' for Inactive)
ROOT
HETATM    1  S   LIG     1      17.543  37.540  25.549  1.00  0.00    -0.041 SA
HETATM    2  C   LIG     1      17.183  36.842  24.115  1.00  0.00     0.167 A 
HETATM    3  N   LIG     1      16.854  37.565  22.951  1.00  0.00    -0.366 N 
HETATM    4  C   LIG     1      16.598  36.608  21.884  1.00  0.00     0.141 A 
HETATM    5  C   LIG     1      16.804  35.208  22.515  1.00  0.00     0.141 A 
HETATM    6  N   LIG     1      17.166  35.449  23.904  1.00  0.00    -0.366 N 
HETATM    7  H   LIG     1      16.803  38.603  22.868  1.00  0.00     0.161 HD
HETATM    8  H   LIG     1      17.375  34.716  24.618  1.00  0.00     0.161 HD
ENDROOT
TORSDOF 0
ENDMDL
MODEL 10
REMARK VINA RESULT:      -3.2      3.830      4.328
REMARK  0 active torsions:
REMARK  status: ('A' for Active; 'I' for Inactive)
ROOT
HETATM    1  S   LIG     1      18.975  39.265  20.646  1.00  0.00    -0.041 SA
HETATM    2  C   LIG     1      17.936  38.388  21.554  1.00  0.00     0.167 A 
HETATM    3  N   LIG     1      17.316  38.871  22.723  1.00  0.00    -0.366 N 
HETATM    4  C   LIG     1      16.467  37.813  23.252  1.00  0.00     0.141 A 
HETATM    5  C   LIG     1      16.628  36.617  22.280  1.00  0.00     0.141 A 
HETATM    6  N   LIG     1      17.560  37.064  21.255  1.00  0.00    -0.366 N 
HETATM    7  H   LIG     1      17.443  39.819  23.138  1.00  0.00     0.161 HD
HETATM    8  H   LIG     1      17.890  36.500  20.441  1.00  0.00     0.161 HD
ENDROOT
TORSDOF 0
ENDMDL
MODEL 11
REMARK VINA RESULT:      -3.1      2.646      3.370
REMARK  0 active torsions:
REMARK  status: ('A' for Active; 'I' for Inactive)
ROOT
HETATM    1  S   LIG     1      16.700  35.126  21.977  1.00  0.00    -0.041 SA
HETATM    2  C   LIG     1      16.923  36.554  22.742  1.00  0.00     0.167 A 
HETATM    3  N   LIG     1      16.967  37.798  22.083  1.00  0.00    -0.366 N 
HETATM    4  C   LIG     1      17.179  38.832  23.086  1.00  0.00     0.141 A 
HETATM    5  C   LIG     1      17.262  38.091  24.444  1.00  0.00     0.141 A 
HETATM    6  N   LIG     1      17.091  36.678  24.135  1.00  0.00    -0.366 N 
HETATM    7  H   LIG     1      16.867  37.953  21.056  1.00  0.00     0.161 HD
HETATM    8  H   LIG     1      17.095  35.896  24.826  1.00  0.00     0.161 HD
ENDROOT
TORSDOF 0
ENDMDL
MODEL 12
REMARK VINA RESULT:      -3.1      4.289      5.037
REMARK  0 active torsions:
REMARK  status: ('A' for Active; 'I' for Inactive)
ROOT
HETATM    1  S   LIG     1      19.016  37.090  19.555  1.00  0.00    -0.041 SA
HETATM    2  C   LIG     1      17.755  36.654  20.500  1.00  0.00     0.167 A 
HETATM    3  N   LIG     1      17.398  37.321  21.688  1.00  0.00    -0.366 N 
HETATM    4  C   LIG     1      16.234  36.650  22.249  1.00  0.00     0.141 A 
HETATM    5  C   LIG     1      15.907  35.489  21.275  1.00  0.00     0.141 A 
HETATM    6  N   LIG     1      16.904  35.568  20.217  1.00  0.00    -0.366 N 
HETATM    7  H   LIG     1      17.882  38.150  22.096  1.00  0.00     0.161 HD
HETATM    8  H   LIG     1      16.973  34.930  19.393  1.00  0.00     0.161 HD
ENDROOT
TORSDOF 0
ENDMDL
MODEL 13
REMARK VINA RESULT:      -3.0      7.298      8.177
REMARK  0 active torsions:
REMARK  status: ('A' for Active; 'I' for Inactive)
ROOT
HETATM    1  S   LIG     1      15.823  34.903  20.477  1.00  0.00    -0.041 SA
HETATM    2  C   LIG     1      15.352  34.046  19.167  1.00  0.00     0.167 A 
HETATM    3  N   LIG     1      15.367  34.552  17.853  1.00  0.00    -0.366 N 
HETATM    4  C   LIG     1      14.882  33.507  16.963  1.00  0.00     0.141 A 
HETATM    5  C   LIG     1      14.564  32.293  17.872  1.00  0.00     0.141 A 
HETATM    6  N   LIG     1      14.887  32.718  19.226  1.00  0.00    -0.366 N 
HETATM    7  H   LIG     1      15.670  35.508  17.566  1.00  0.00     0.161 HD
HETATM    8  H   LIG     1      14.789  32.138  20.089  1.00  0.00     0.161 HD
ENDROOT
TORSDOF 0
ENDMDL
MODEL 14
REMARK VINA RESULT:      -2.9      6.100      6.888
REMARK  0 active torsions:
REMARK  status: ('A' for Active; 'I' for Inactive)
ROOT
HETATM    1  S   LIG     1      15.308  35.651  21.329  1.00  0.00    -0.041 SA
HETATM    2  C   LIG     1      15.188  34.297  20.421  1.00  0.00     0.167 A 
HETATM    3  N   LIG     1      15.563  34.226  19.065  1.00  0.00    -0.366 N 
HETATM    4  C   LIG     1      15.313  32.869  18.599  1.00  0.00     0.141 A 
HETATM    5  C   LIG     1      14.739  32.104  19.818  1.00  0.00     0.141 A 
HETATM    6  N   LIG     1      14.697  33.069  20.907  1.00  0.00    -0.366 N 
HETATM    7  H   LIG     1      15.952  35.008  18.494  1.00  0.00     0.161 HD
HETATM    8  H   LIG     1      14.360  32.882  21.877  1.00  0.00     0.161 HD
ENDROOT
TORSDOF 0
ENDMDL
MODEL 15
REMARK VINA RESULT:      -2.9      4.090      4.462
REMARK  0 active torsions:
REMARK  status: ('A' for Active; 'I' for Inactive)
ROOT
HETATM    1  S   LIG     1      15.918  34.915  21.331  1.00  0.00    -0.041 SA
HETATM    2  C   LIG     1      16.498  36.407  21.662  1.00  0.00     0.167 A 
HETATM    3  N   LIG     1      15.888  37.305  22.560  1.00  0.00    -0.366 N 
HETATM    4  C   LIG     1      16.686  38.522  22.593  1.00  0.00     0.141 A 
HETATM    5  C   LIG     1      17.862  38.281  21.614  1.00  0.00     0.141 A 
HETATM    6  N   LIG     1      17.665  36.940  21.081  1.00  0.00    -0.366 N 
HETATM    7  H   LIG     1      15.016  37.130  23.105  1.00  0.00     0.161 HD
HETATM    8  H   LIG     1      18.283  36.460  20.389  1.00  0.00     0.161 HD
ENDROOT
TORSDOF 0
ENDMDL
MODEL 16
REMARK VINA RESULT:      -2.9      2.704      3.502
REMARK  0 active torsions:
REMARK  status: ('A' for Active; 'I' for Inactive)
ROOT
HETATM    1  S   LIG     1      17.345  38.978  22.376  1.00  0.00    -0.041 SA
HETATM    2  C   LIG     1      17.173  37.355  22.465  1.00  0.00     0.167 A 
HETATM    3  N   LIG     1      17.085  36.641  23.676  1.00  0.00    -0.366 N 
HETATM    4  C   LIG     1      16.939  35.228  23.356  1.00  0.00     0.141 A 
HETATM    5  C   LIG     1      16.946  35.143  21.809  1.00  0.00     0.141 A 
HETATM    6  N   LIG     1      17.096  36.513  21.339  1.00  0.00    -0.366 N 
HETATM    7  H   LIG     1      17.118  37.051  24.635  1.00  0.00     0.161 HD
HETATM    8  H   LIG     1      17.138  36.815  20.340  1.00  0.00     0.161 HD
ENDROOT
TORSDOF 0
ENDMDL
MODEL 17
REMARK VINA RESULT:      -2.8     13.481     14.127
REMARK  0 active torsions:
REMARK  status: ('A' for Active; 'I' for Inactive)
ROOT
HETATM    1  S   LIG     1      14.203  30.905  15.258  1.00  0.00    -0.041 SA
HETATM    2  C   LIG     1      14.203  29.454  14.503  1.00  0.00     0.167 A 
HETATM    3  N   LIG     1      13.034  28.733  14.192  1.00  0.00    -0.366 N 
HETATM    4  C   LIG     1      13.429  27.499  13.528  1.00  0.00     0.141 A 
HETATM    5  C   LIG     1      14.977  27.533  13.462  1.00  0.00     0.141 A 
HETATM    6  N   LIG     1      15.371  28.786  14.091  1.00  0.00    -0.366 N 
HETATM    7  H   LIG     1      12.055  29.030  14.400  1.00  0.00     0.161 HD
HETATM    8  H   LIG     1      16.351  29.126  14.215  1.00  0.00     0.161 HD
ENDROOT
TORSDOF 0
ENDMDL
MODEL 18
REMARK VINA RESULT:      -2.7     10.336     11.063
REMARK  0 active torsions:
REMARK  status: ('A' for Active; 'I' for Inactive)
ROOT
HETATM    1  S   LIG     1      14.190  31.990  17.372  1.00  0.00    -0.041 SA
HETATM    2  C   LIG     1      15.204  32.232  16.113  1.00  0.00     0.167 A 
HETATM    3  N   LIG     1      15.101  31.555  14.882  1.00  0.00    -0.366 N 
HETATM    4  C   LIG     1      16.169  32.032  14.015  1.00  0.00     0.141 A 
HETATM    5  C   LIG     1      16.949  33.082  14.845  1.00  0.00     0.141 A 
HETATM    6  N   LIG     1      16.278  33.142  16.136  1.00  0.00    -0.366 N 
HETATM    7  H   LIG     1      14.386  30.837  14.634  1.00  0.00     0.161 HD
HETATM    8  H   LIG     1      16.549  33.754  16.938  1.00  0.00     0.161 HD
ENDROOT
TORSDOF 0
ENDMDL
MODEL 19
REMARK VINA RESULT:      -2.6     14.970     15.673
REMARK  0 active torsions:
REMARK  status: ('A' for Active; 'I' for Inactive)
ROOT
HETATM    1  S   LIG     1      13.941  29.605  14.462  1.00  0.00    -0.041 SA
HETATM    2  C   LIG     1      12.971  28.501  13.745  1.00  0.00     0.167 A 
HETATM    3  N   LIG     1      11.618  28.734  13.431  1.00  0.00    -0.366 N 
HETATM    4  C   LIG     1      11.087  27.531  12.806  1.00  0.00     0.141 A 
HETATM    5  C   LIG     1      12.263  26.522  12.767  1.00  0.00     0.141 A 
HETATM    6  N   LIG     1      13.394  27.211  13.372  1.00  0.00    -0.366 N 
HETATM    7  H   LIG     1      11.087  29.613  13.614  1.00  0.00     0.161 HD
HETATM    8  H   LIG     1      14.352  26.815  13.504  1.00  0.00     0.161 HD
ENDROOT
TORSDOF 0
ENDMDL
MODEL 20
REMARK VINA RESULT:      -2.2     13.485     13.656
REMARK  0 active torsions:
REMARK  status: ('A' for Active; 'I' for Inactive)
ROOT
HETATM    1  S   LIG     1      30.306  38.912  16.571  1.00  0.00    -0.041 SA
HETATM    2  C   LIG     1      29.467  38.648  17.949  1.00  0.00     0.167 A 
HETATM    3  N   LIG     1      30.022  38.761  19.238  1.00  0.00    -0.366 N 
HETATM    4  C   LIG     1      28.979  38.454  20.207  1.00  0.00     0.141 A 
HETATM    5  C   LIG     1      27.711  38.137  19.374  1.00  0.00     0.141 A 
HETATM    6  N   LIG     1      28.107  38.283  17.980  1.00  0.00    -0.366 N 
HETATM    7  H   LIG     1      31.008  39.019  19.462  1.00  0.00     0.161 HD
HETATM    8  H   LIG     1      27.489  38.140  17.151  1.00  0.00     0.161 HD
ENDROOT
TORSDOF 0
ENDMDL
