REMARK  0 active torsions:
REMARK  status: ('A' for Active; 'I' for Inactive)
ROOT
HETATM    1  C   LIG     1       1.904  -0.346  -0.270  1.00  0.00     0.039 C 
HETATM    2  C   LIG     1       0.692  -0.086   0.626  1.00  0.00     0.117 C 
HETATM    3  C   LIG     1      -0.498  -0.955   0.230  1.00  0.00     0.034 C 
HETATM    4  C   LIG     1      -1.393  -0.003  -0.499  1.00  0.00     0.029 C 
HETATM    5  C   LIG     1      -1.005   1.337   0.086  1.00  0.00     0.168 C 
HETATM    6  O   LIG     1       0.330   1.276   0.532  1.00  0.00    -0.386 OA
ENDROOT
TORSDOF 0
