MODEL 1
REMARK VINA RESULT:      -4.4      0.000      0.000
REMARK  0 active torsions:
REMARK  status: ('A' for Active; 'I' for Inactive)
ROOT
HETATM    1  C   LIG     1      18.547  37.941  24.744  1.00  0.00     0.039 C 
HETATM    2  C   LIG     1      17.567  37.082  25.545  1.00  0.00     0.117 C 
HETATM    3  C   LIG     1      18.252  36.396  26.723  1.00  0.00     0.034 C 
HETATM    4  C   LIG     1      18.413  34.984  26.253  1.00  0.00     0.029 C 
HETATM    5  C   LIG     1      17.301  34.839  25.239  1.00  0.00     0.168 C 
HETATM    6  O   LIG     1      17.006  36.105  24.694  1.00  0.00    -0.386 OA
ENDROOT
TORSDOF 0
ENDMDL
MODEL 2
REMARK VINA RESULT:      -4.1      1.044      2.442
REMARK  0 active torsions:
REMARK  status: ('A' for Active; 'I' for Inactive)
ROOT
HETATM    1  C   LIG     1      17.183  34.713  26.218  1.00  0.00     0.039 C 
HETATM    2  C   LIG     1      17.948  35.712  25.350  1.00  0.00     0.117 C 
HETATM    3  C   LIG     1      18.364  36.947  26.144  1.00  0.00     0.034 C 
HETATM    4  C   LIG     1      17.386  37.988  25.699  1.00  0.00     0.029 C 
HETATM    5  C   LIG     1      16.983  37.504  24.324  1.00  0.00     0.168 C 
HETATM    6  O   LIG     1      17.132  36.104  24.266  1.00  0.00    -0.386 OA
ENDROOT
TORSDOF 0
ENDMDL
MODEL 3
REMARK VINA RESULT:      -4.0      2.339      3.515
REMARK  0 active torsions:
REMARK  status: ('A' for Active; 'I' for Inactive)
ROOT
HETATM    1  C   LIG     1      17.997  37.277  25.388  1.00  0.00     0.039 C 
HETATM    2  C   LIG     1      16.809  37.500  24.452  1.00  0.00     0.117 C 
HETATM    3  C   LIG     1      16.921  36.654  23.188  1.00  0.00     0.034 C 
HETATM    4  C   LIG     1      17.353  37.640  22.149  1.00  0.00     0.029 C 
HETATM    5  C   LIG     1      16.831  38.951  22.694  1.00  0.00     0.168 C 
HETATM    6  O   LIG     1      16.747  38.866  24.098  1.00  0.00    -0.386 OA
ENDROOT
TORSDOF 0
ENDMDL
MODEL 4
REMARK VINA RESULT:      -3.9      2.467      3.457
REMARK  0 active torsions:
REMARK  status: ('A' for Active; 'I' for Inactive)
ROOT
HETATM    1  C   LIG     1      16.189  36.811  22.171  1.00  0.00     0.039 C 
HETATM    2  C   LIG     1      16.388  38.096  22.977  1.00  0.00     0.117 C 
HETATM    3  C   LIG     1      17.828  38.594  22.894  1.00  0.00     0.034 C 
HETATM    4  C   LIG     1      18.405  38.204  24.218  1.00  0.00     0.029 C 
HETATM    5  C   LIG     1      17.186  38.146  25.111  1.00  0.00     0.168 C 
HETATM    6  O   LIG     1      16.053  37.853  24.327  1.00  0.00    -0.386 OA
ENDROOT
TORSDOF 0
ENDMDL
MODEL 5
REMARK VINA RESULT:      -3.9      4.895      6.121
REMARK  0 active torsions:
REMARK  status: ('A' for Active; 'I' for Inactive)
ROOT
HETATM    1  C   LIG     1      18.504  38.940  22.323  1.00  0.00     0.039 C 
HETATM    2  C   LIG     1      18.295  38.901  20.808  1.00  0.00     0.117 C 
HETATM    3  C   LIG     1      18.370  37.477  20.266  1.00  0.00     0.034 C 
HETATM    4  C   LIG     1      19.724  37.421  19.632  1.00  0.00     0.029 C 
HETATM    5  C   LIG     1      19.996  38.869  19.292  1.00  0.00     0.168 C 
HETATM    6  O   LIG     1      19.283  39.694  20.184  1.00  0.00    -0.386 OA
ENDROOT
TORSDOF 0
ENDMDL
MODEL 6
REMARK VINA RESULT:      -3.7      3.199      3.950
REMARK  0 active torsions:
REMARK  status: ('A' for Active; 'I' for Inactive)
ROOT
HETATM    1  C   LIG     1      14.810  35.816  21.289  1.00  0.00     0.039 C 
HETATM    2  C   LIG     1      16.242  36.235  21.629  1.00  0.00     0.117 C 
HETATM    3  C   LIG     1      17.054  35.068  22.182  1.00  0.00     0.034 C 
HETATM    4  C   LIG     1      17.099  35.345  23.652  1.00  0.00     0.029 C 
HETATM    5  C   LIG     1      16.925  36.847  23.716  1.00  0.00     0.168 C 
HETATM    6  O   LIG     1      16.205  37.276  22.583  1.00  0.00    -0.386 OA
ENDROOT
TORSDOF 0
ENDMDL
MODEL 7
REMARK VINA RESULT:      -3.6      3.723      4.669
REMARK  0 active torsions:
REMARK  status: ('A' for Active; 'I' for Inactive)
ROOT
HETATM    1  C   LIG     1      15.740  37.855  22.747  1.00  0.00     0.039 C 
HETATM    2  C   LIG     1      17.237  37.592  22.574  1.00  0.00     0.117 C 
HETATM    3  C   LIG     1      18.034  38.892  22.513  1.00  0.00     0.034 C 
HETATM    4  C   LIG     1      18.345  39.038  21.057  1.00  0.00     0.029 C 
HETATM    5  C   LIG     1      18.306  37.610  20.560  1.00  0.00     0.168 C 
HETATM    6  O   LIG     1      17.444  36.859  21.384  1.00  0.00    -0.386 OA
ENDROOT
TORSDOF 0
ENDMDL
MODEL 8
REMARK VINA RESULT:      -3.6      4.087      4.983
REMARK  0 active torsions:
REMARK  status: ('A' for Active; 'I' for Inactive)
ROOT
HETATM    1  C   LIG     1      14.927  35.586  21.236  1.00  0.00     0.039 C 
HETATM    2  C   LIG     1      16.433  35.469  21.475  1.00  0.00     0.117 C 
HETATM    3  C   LIG     1      16.937  36.544  22.433  1.00  0.00     0.034 C 
HETATM    4  C   LIG     1      17.607  37.528  21.527  1.00  0.00     0.029 C 
HETATM    5  C   LIG     1      17.997  36.677  20.339  1.00  0.00     0.168 C 
HETATM    6  O   LIG     1      17.109  35.588  20.240  1.00  0.00    -0.386 OA
ENDROOT
TORSDOF 0
ENDMDL
MODEL 9
REMARK VINA RESULT:      -3.6      2.856      3.536
REMARK  0 active torsions:
REMARK  status: ('A' for Active; 'I' for Inactive)
ROOT
HETATM    1  C   LIG     1      15.892  38.222  22.713  1.00  0.00     0.039 C 
HETATM    2  C   LIG     1      17.113  37.302  22.708  1.00  0.00     0.117 C 
HETATM    3  C   LIG     1      17.177  36.458  21.438  1.00  0.00     0.034 C 
HETATM    4  C   LIG     1      16.718  35.109  21.897  1.00  0.00     0.029 C 
HETATM    5  C   LIG     1      17.063  35.121  23.370  1.00  0.00     0.168 C 
HETATM    6  O   LIG     1      17.057  36.451  23.834  1.00  0.00    -0.386 OA
ENDROOT
TORSDOF 0
ENDMDL
MODEL 10
REMARK VINA RESULT:      -3.5      4.862      5.901
REMARK  0 active torsions:
REMARK  status: ('A' for Active; 'I' for Inactive)
ROOT
HETATM    1  C   LIG     1      17.262  38.928  21.854  1.00  0.00     0.039 C 
HETATM    2  C   LIG     1      18.576  38.333  21.345  1.00  0.00     0.117 C 
HETATM    3  C   LIG     1      19.314  39.301  20.426  1.00  0.00     0.034 C 
HETATM    4  C   LIG     1      19.051  38.749  19.060  1.00  0.00     0.029 C 
HETATM    5  C   LIG     1      18.799  37.282  19.334  1.00  0.00     0.168 C 
HETATM    6  O   LIG     1      18.302  37.137  20.644  1.00  0.00    -0.386 OA
ENDROOT
TORSDOF 0
ENDMDL
MODEL 11
REMARK VINA RESULT:      -3.5      9.183     10.246
REMARK  0 active torsions:
REMARK  status: ('A' for Active; 'I' for Inactive)
ROOT
HETATM    1  C   LIG     1      15.119  32.104  18.926  1.00  0.00     0.039 C 
HETATM    2  C   LIG     1      14.715  32.709  17.581  1.00  0.00     0.117 C 
HETATM    3  C   LIG     1      13.561  31.942  16.942  1.00  0.00     0.034 C 
HETATM    4  C   LIG     1      14.232  31.138  15.873  1.00  0.00     0.029 C 
HETATM    5  C   LIG     1      15.470  31.951  15.568  1.00  0.00     0.168 C 
HETATM    6  O   LIG     1      15.828  32.692  16.712  1.00  0.00    -0.386 OA
ENDROOT
TORSDOF 0
ENDMDL
MODEL 12
REMARK VINA RESULT:      -3.5      2.153      3.315
REMARK  0 active torsions:
REMARK  status: ('A' for Active; 'I' for Inactive)
ROOT
HETATM    1  C   LIG     1      17.327  38.058  25.566  1.00  0.00     0.039 C 
HETATM    2  C   LIG     1      17.839  37.558  24.215  1.00  0.00     0.117 C 
HETATM    3  C   LIG     1      17.894  38.680  23.183  1.00  0.00     0.034 C 
HETATM    4  C   LIG     1      16.697  38.418  22.324  1.00  0.00     0.029 C 
HETATM    5  C   LIG     1      16.481  36.930  22.495  1.00  0.00     0.168 C 
HETATM    6  O   LIG     1      16.988  36.532  23.748  1.00  0.00    -0.386 OA
ENDROOT
TORSDOF 0
ENDMDL
MODEL 13
REMARK VINA RESULT:      -3.5      2.656      3.330
REMARK  0 active torsions:
REMARK  status: ('A' for Active; 'I' for Inactive)
ROOT
HETATM    1  C   LIG     1      18.660  39.130  21.949  1.00  0.00     0.039 C 
HETATM    2  C   LIG     1      17.265  38.604  22.291  1.00  0.00     0.117 C 
HETATM    3  C   LIG     1      17.052  38.509  23.798  1.00  0.00     0.034 C 
HETATM    4  C   LIG     1      17.185  37.044  24.074  1.00  0.00     0.029 C 
HETATM    5  C   LIG     1      16.809  36.418  22.750  1.00  0.00     0.168 C 
HETATM    6  O   LIG     1      17.097  37.326  21.712  1.00  0.00    -0.386 OA
ENDROOT
TORSDOF 0
ENDMDL
MODEL 14
REMARK VINA RESULT:      -3.4      9.057     10.148
REMARK  0 active torsions:
REMARK  status: ('A' for Active; 'I' for Inactive)
ROOT
HETATM    1  C   LIG     1      14.046  30.768  15.702  1.00  0.00     0.039 C 
HETATM    2  C   LIG     1      13.591  31.665  16.854  1.00  0.00     0.117 C 
HETATM    3  C   LIG     1      14.346  32.991  16.868  1.00  0.00     0.034 C 
HETATM    4  C   LIG     1      15.329  32.816  17.983  1.00  0.00     0.029 C 
HETATM    5  C   LIG     1      14.655  31.789  18.866  1.00  0.00     0.168 C 
HETATM    6  O   LIG     1      13.802  30.992  18.078  1.00  0.00    -0.386 OA
ENDROOT
TORSDOF 0
ENDMDL
MODEL 15
REMARK VINA RESULT:      -3.4     12.105     12.676
REMARK  0 active torsions:
REMARK  status: ('A' for Active; 'I' for Inactive)
ROOT
HETATM    1  C   LIG     1      16.024  32.065  13.509  1.00  0.00     0.039 C 
HETATM    2  C   LIG     1      15.795  31.027  14.609  1.00  0.00     0.117 C 
HETATM    3  C   LIG     1      15.295  29.703  14.039  1.00  0.00     0.034 C 
HETATM    4  C   LIG     1      13.835  29.717  14.366  1.00  0.00     0.029 C 
HETATM    5  C   LIG     1      13.769  30.624  15.574  1.00  0.00     0.168 C 
HETATM    6  O   LIG     1      14.849  31.529  15.530  1.00  0.00    -0.386 OA
ENDROOT
TORSDOF 0
ENDMDL
MODEL 16
REMARK VINA RESULT:      -3.4      4.262      4.800
REMARK  0 active torsions:
REMARK  status: ('A' for Active; 'I' for Inactive)
ROOT
HETATM    1  C   LIG     1      18.093  36.564  20.206  1.00  0.00     0.039 C 
HETATM    2  C   LIG     1      17.393  36.089  21.481  1.00  0.00     0.117 C 
HETATM    3  C   LIG     1      16.399  34.967  21.193  1.00  0.00     0.034 C 
HETATM    4  C   LIG     1      15.073  35.657  21.256  1.00  0.00     0.029 C 
HETATM    5  C   LIG     1      15.350  36.835  22.163  1.00  0.00     0.168 C 
HETATM    6  O   LIG     1      16.714  37.178  22.071  1.00  0.00    -0.386 OA
ENDROOT
TORSDOF 0
ENDMDL
MODEL 17
REMARK VINA RESULT:      -3.4     11.609     12.668
REMARK  0 active torsions:
REMARK  status: ('A' for Active; 'I' for Inactive)
ROOT
HETATM    1  C   LIG     1      15.337  29.038  14.119  1.00  0.00     0.039 C 
HETATM    2  C   LIG     1      14.420  30.259  14.211  1.00  0.00     0.117 C 
HETATM    3  C   LIG     1      15.034  31.361  15.069  1.00  0.00     0.034 C 
HETATM    4  C   LIG     1      14.282  31.255  16.358  1.00  0.00     0.029 C 
HETATM    5  C   LIG     1      12.971  30.632  15.932  1.00  0.00     0.168 C 
HETATM    6  O   LIG     1      13.182  29.867  14.767  1.00  0.00    -0.386 OA
ENDROOT
TORSDOF 0
ENDMDL
MODEL 18
REMARK VINA RESULT:      -3.3     11.489     12.341
REMARK  0 active torsions:
REMARK  status: ('A' for Active; 'I' for Inactive)
ROOT
HETATM    1  C   LIG     1      17.181  32.363  15.335  1.00  0.00     0.039 C 
HETATM    2  C   LIG     1      15.871  32.205  14.561  1.00  0.00     0.117 C 
HETATM    3  C   LIG     1      14.801  31.513  15.400  1.00  0.00     0.034 C 
HETATM    4  C   LIG     1      14.776  30.122  14.847  1.00  0.00     0.029 C 
HETATM    5  C   LIG     1      15.281  30.314  13.434  1.00  0.00     0.168 C 
HETATM    6  O   LIG     1      16.111  31.451  13.392  1.00  0.00    -0.386 OA
ENDROOT
TORSDOF 0
ENDMDL
MODEL 19
REMARK VINA RESULT:      -3.2      9.935     10.911
REMARK  0 active torsions:
REMARK  status: ('A' for Active; 'I' for Inactive)
ROOT
HETATM    1  C   LIG     1      12.761  30.858  16.078  1.00  0.00     0.039 C 
HETATM    2  C   LIG     1      14.209  31.020  16.544  1.00  0.00     0.117 C 
HETATM    3  C   LIG     1      14.328  32.052  17.662  1.00  0.00     0.034 C 
HETATM    4  C   LIG     1      14.887  33.252  16.965  1.00  0.00     0.029 C 
HETATM    5  C   LIG     1      15.613  32.647  15.784  1.00  0.00     0.168 C 
HETATM    6  O   LIG     1      15.006  31.421  15.449  1.00  0.00    -0.386 OA
ENDROOT
TORSDOF 0
ENDMDL
MODEL 20
REMARK VINA RESULT:      -3.1     12.086     12.732
REMARK  0 active torsions:
REMARK  status: ('A' for Active; 'I' for Inactive)
ROOT
HETATM    1  C   LIG     1      29.870  38.997  21.966  1.00  0.00     0.039 C 
HETATM    2  C   LIG     1      29.773  38.753  20.459  1.00  0.00     0.117 C 
HETATM    3  C   LIG     1      29.199  39.963  19.728  1.00  0.00     0.034 C 
HETATM    4  C   LIG     1      27.790  39.552  19.435  1.00  0.00     0.029 C 
HETATM    5  C   LIG     1      27.879  38.042  19.408  1.00  0.00     0.168 C 
HETATM    6  O   LIG     1      28.950  37.629  20.225  1.00  0.00    -0.386 OA
ENDROOT
TORSDOF 0
ENDMDL
