MODEL 1
REMARK VINA RESULT:      -4.7      0.000      0.000
REMARK  0 active torsions:
REMARK  status: ('A' for Active; 'I' for Inactive)
ROOT
HETATM    1  O   LIG     1      17.243  38.471  25.387  1.00  0.00    -0.265 OA
HETATM    2  C   LIG     1      17.482  37.241  25.508  1.00  0.00     0.258 A 
HETATM    3  C   LIG     1      18.299  36.662  26.591  1.00  0.00     0.113 A 
HETATM    4  C   LIG     1      18.270  35.163  26.271  1.00  0.00     0.037 A 
HETATM    5  C   LIG     1      17.417  34.995  24.999  1.00  0.00     0.179 A 
HETATM    6  O   LIG     1      17.000  36.297  24.632  1.00  0.00    -0.321 OA
ENDROOT
TORSDOF 0
ENDMDL
MODEL 2
REMARK VINA RESULT:      -4.4      0.902      1.835
REMARK  0 active torsions:
REMARK  status: ('A' for Active; 'I' for Inactive)
ROOT
HETATM    1  O   LIG     1      16.693  37.230  23.957  1.00  0.00    -0.265 OA
HETATM    2  C   LIG     1      17.271  36.598  24.880  1.00  0.00     0.258 A 
HETATM    3  C   LIG     1      17.379  35.129  24.932  1.00  0.00     0.113 A 
HETATM    4  C   LIG     1      18.157  34.893  26.232  1.00  0.00     0.037 A 
HETATM    5  C   LIG     1      18.442  36.280  26.839  1.00  0.00     0.179 A 
HETATM    6  O   LIG     1      17.869  37.222  25.950  1.00  0.00    -0.321 OA
ENDROOT
TORSDOF 0
ENDMDL
MODEL 3
REMARK VINA RESULT:      -4.0      1.417      2.404
REMARK  0 active torsions:
REMARK  status: ('A' for Active; 'I' for Inactive)
ROOT
HETATM    1  O   LIG     1      18.355  34.532  26.405  1.00  0.00    -0.265 OA
HETATM    2  C   LIG     1      17.979  35.580  25.819  1.00  0.00     0.258 A 
HETATM    3  C   LIG     1      18.185  36.941  26.349  1.00  0.00     0.113 A 
HETATM    4  C   LIG     1      17.550  37.824  25.268  1.00  0.00     0.037 A 
HETATM    5  C   LIG     1      17.018  36.877  24.175  1.00  0.00     0.179 A 
HETATM    6  O   LIG     1      17.327  35.566  24.608  1.00  0.00    -0.321 OA
ENDROOT
TORSDOF 0
ENDMDL
MODEL 4
REMARK VINA RESULT:      -3.9      5.264      6.044
REMARK  0 active torsions:
REMARK  status: ('A' for Active; 'I' for Inactive)
ROOT
HETATM    1  O   LIG     1      17.634  35.983  20.250  1.00  0.00    -0.265 OA
HETATM    2  C   LIG     1      18.250  37.078  20.318  1.00  0.00     0.258 A 
HETATM    3  C   LIG     1      19.383  37.444  19.448  1.00  0.00     0.113 A 
HETATM    4  C   LIG     1      19.750  38.848  19.944  1.00  0.00     0.037 A 
HETATM    5  C   LIG     1      18.774  39.186  21.087  1.00  0.00     0.179 A 
HETATM    6  O   LIG     1      17.926  38.061  21.224  1.00  0.00    -0.321 OA
ENDROOT
TORSDOF 0
ENDMDL
MODEL 5
REMARK VINA RESULT:      -3.9      3.244      3.858
REMARK  0 active torsions:
REMARK  status: ('A' for Active; 'I' for Inactive)
ROOT
HETATM    1  O   LIG     1      15.937  38.011  24.214  1.00  0.00    -0.265 OA
HETATM    2  C   LIG     1      16.601  37.886  23.152  1.00  0.00     0.258 A 
HETATM    3  C   LIG     1      17.418  38.961  22.559  1.00  0.00     0.113 A 
HETATM    4  C   LIG     1      17.998  38.292  21.307  1.00  0.00     0.037 A 
HETATM    5  C   LIG     1      17.457  36.850  21.281  1.00  0.00     0.179 A 
HETATM    6  O   LIG     1      16.636  36.718  22.426  1.00  0.00    -0.321 OA
ENDROOT
TORSDOF 0
ENDMDL
MODEL 6
REMARK VINA RESULT:      -3.8      5.177      5.948
REMARK  0 active torsions:
REMARK  status: ('A' for Active; 'I' for Inactive)
ROOT
HETATM    1  O   LIG     1      18.997  36.461  19.177  1.00  0.00    -0.265 OA
HETATM    2  C   LIG     1      18.754  37.409  19.969  1.00  0.00     0.258 A 
HETATM    3  C   LIG     1      19.426  38.720  19.918  1.00  0.00     0.113 A 
HETATM    4  C   LIG     1      18.771  39.481  21.077  1.00  0.00     0.037 A 
HETATM    5  C   LIG     1      17.749  38.523  21.717  1.00  0.00     0.179 A 
HETATM    6  O   LIG     1      17.823  37.318  20.977  1.00  0.00    -0.321 OA
ENDROOT
TORSDOF 0
ENDMDL
MODEL 7
REMARK VINA RESULT:      -3.8      2.195      3.148
REMARK  0 active torsions:
REMARK  status: ('A' for Active; 'I' for Inactive)
ROOT
HETATM    1  O   LIG     1      17.331  37.806  25.911  1.00  0.00    -0.265 OA
HETATM    2  C   LIG     1      17.102  37.809  24.673  1.00  0.00     0.258 A 
HETATM    3  C   LIG     1      17.068  36.595  23.837  1.00  0.00     0.113 A 
HETATM    4  C   LIG     1      16.754  37.153  22.444  1.00  0.00     0.037 A 
HETATM    5  C   LIG     1      16.630  38.682  22.594  1.00  0.00     0.179 A 
HETATM    6  O   LIG     1      16.855  38.961  23.963  1.00  0.00    -0.321 OA
ENDROOT
TORSDOF 0
ENDMDL
MODEL 8
REMARK VINA RESULT:      -3.7      4.970      5.487
REMARK  0 active torsions:
REMARK  status: ('A' for Active; 'I' for Inactive)
ROOT
HETATM    1  O   LIG     1      17.049  37.819  22.211  1.00  0.00    -0.265 OA
HETATM    2  C   LIG     1      17.921  37.990  21.319  1.00  0.00     0.258 A 
HETATM    3  C   LIG     1      18.689  39.236  21.144  1.00  0.00     0.113 A 
HETATM    4  C   LIG     1      19.589  38.913  19.946  1.00  0.00     0.037 A 
HETATM    5  C   LIG     1      19.258  37.471  19.517  1.00  0.00     0.179 A 
HETATM    6  O   LIG     1      18.252  37.018  20.404  1.00  0.00    -0.321 OA
ENDROOT
TORSDOF 0
ENDMDL
MODEL 9
REMARK VINA RESULT:      -3.6      3.633      4.530
REMARK  0 active torsions:
REMARK  status: ('A' for Active; 'I' for Inactive)
ROOT
HETATM    1  O   LIG     1      17.915  36.274  19.639  1.00  0.00    -0.265 OA
HETATM    2  C   LIG     1      17.545  36.300  20.842  1.00  0.00     0.258 A 
HETATM    3  C   LIG     1      17.162  35.102  21.613  1.00  0.00     0.113 A 
HETATM    4  C   LIG     1      16.806  35.684  22.986  1.00  0.00     0.037 A 
HETATM    5  C   LIG     1      17.018  37.207  22.893  1.00  0.00     0.179 A 
HETATM    6  O   LIG     1      17.459  37.462  21.572  1.00  0.00    -0.321 OA
ENDROOT
TORSDOF 0
ENDMDL
MODEL 10
REMARK VINA RESULT:      -3.6      7.985      9.108
REMARK  0 active torsions:
REMARK  status: ('A' for Active; 'I' for Inactive)
ROOT
HETATM    1  O   LIG     1      15.212  34.645  16.457  1.00  0.00    -0.265 OA
HETATM    2  C   LIG     1      15.041  33.677  17.243  1.00  0.00     0.258 A 
HETATM    3  C   LIG     1      14.248  32.478  16.915  1.00  0.00     0.113 A 
HETATM    4  C   LIG     1      14.364  31.637  18.192  1.00  0.00     0.037 A 
HETATM    5  C   LIG     1      15.235  32.441  19.177  1.00  0.00     0.179 A 
HETATM    6  O   LIG     1      15.582  33.638  18.507  1.00  0.00    -0.321 OA
ENDROOT
TORSDOF 0
ENDMDL
MODEL 11
REMARK VINA RESULT:      -3.5     11.747     12.381
REMARK  0 active torsions:
REMARK  status: ('A' for Active; 'I' for Inactive)
ROOT
HETATM    1  O   LIG     1      12.851  30.677  16.785  1.00  0.00    -0.265 OA
HETATM    2  C   LIG     1      13.720  30.754  15.878  1.00  0.00     0.258 A 
HETATM    3  C   LIG     1      13.769  29.863  14.705  1.00  0.00     0.113 A 
HETATM    4  C   LIG     1      14.993  30.379  13.939  1.00  0.00     0.037 A 
HETATM    5  C   LIG     1      15.564  31.556  14.754  1.00  0.00     0.179 A 
HETATM    6  O   LIG     1      14.727  31.691  15.887  1.00  0.00    -0.321 OA
ENDROOT
TORSDOF 0
ENDMDL
MODEL 12
REMARK VINA RESULT:      -3.5      4.705      5.671
REMARK  0 active torsions:
REMARK  status: ('A' for Active; 'I' for Inactive)
ROOT
HETATM    1  O   LIG     1      15.686  34.350  19.263  1.00  0.00    -0.265 OA
HETATM    2  C   LIG     1      16.012  35.173  20.158  1.00  0.00     0.258 A 
HETATM    3  C   LIG     1      15.138  35.560  21.281  1.00  0.00     0.113 A 
HETATM    4  C   LIG     1      16.004  36.564  22.052  1.00  0.00     0.037 A 
HETATM    5  C   LIG     1      17.339  36.677  21.291  1.00  0.00     0.179 A 
HETATM    6  O   LIG     1      17.233  35.805  20.181  1.00  0.00    -0.321 OA
ENDROOT
TORSDOF 0
ENDMDL
MODEL 13
REMARK VINA RESULT:      -3.5     10.778     12.018
REMARK  0 active torsions:
REMARK  status: ('A' for Active; 'I' for Inactive)
ROOT
HETATM    1  O   LIG     1      16.198  31.246  13.930  1.00  0.00    -0.265 OA
HETATM    2  C   LIG     1      15.302  31.258  14.815  1.00  0.00     0.258 A 
HETATM    3  C   LIG     1      14.187  30.296  14.873  1.00  0.00     0.113 A 
HETATM    4  C   LIG     1      13.411  30.752  16.115  1.00  0.00     0.037 A 
HETATM    5  C   LIG     1      14.162  31.970  16.686  1.00  0.00     0.179 A 
HETATM    6  O   LIG     1      15.271  32.183  15.833  1.00  0.00    -0.321 OA
ENDROOT
TORSDOF 0
ENDMDL
MODEL 14
REMARK VINA RESULT:      -3.5     11.132     12.110
REMARK  0 active torsions:
REMARK  status: ('A' for Active; 'I' for Inactive)
ROOT
HETATM    1  O   LIG     1      16.407  32.929  15.893  1.00  0.00    -0.265 OA
HETATM    2  C   LIG     1      15.811  32.012  15.271  1.00  0.00     0.258 A 
HETATM    3  C   LIG     1      14.605  31.325  15.771  1.00  0.00     0.113 A 
HETATM    4  C   LIG     1      14.299  30.323  14.652  1.00  0.00     0.037 A 
HETATM    5  C   LIG     1      15.380  30.518  13.571  1.00  0.00     0.179 A 
HETATM    6  O   LIG     1      16.226  31.549  14.045  1.00  0.00    -0.321 OA
ENDROOT
TORSDOF 0
ENDMDL
MODEL 15
REMARK VINA RESULT:      -3.5     10.181     11.100
REMARK  0 active torsions:
REMARK  status: ('A' for Active; 'I' for Inactive)
ROOT
HETATM    1  O   LIG     1      15.671  33.180  16.914  1.00  0.00    -0.265 OA
HETATM    2  C   LIG     1      14.923  32.273  16.462  1.00  0.00     0.258 A 
HETATM    3  C   LIG     1      13.629  31.897  17.060  1.00  0.00     0.113 A 
HETATM    4  C   LIG     1      13.147  30.768  16.140  1.00  0.00     0.037 A 
HETATM    5  C   LIG     1      14.230  30.581  15.061  1.00  0.00     0.179 A 
HETATM    6  O   LIG     1      15.241  31.529  15.350  1.00  0.00    -0.321 OA
ENDROOT
TORSDOF 0
ENDMDL
MODEL 16
REMARK VINA RESULT:      -3.4     11.391     12.335
REMARK  0 active torsions:
REMARK  status: ('A' for Active; 'I' for Inactive)
ROOT
HETATM    1  O   LIG     1      12.858  30.685  16.766  1.00  0.00    -0.265 OA
HETATM    2  C   LIG     1      13.741  30.747  15.871  1.00  0.00     0.258 A 
HETATM    3  C   LIG     1      14.850  31.718  15.871  1.00  0.00     0.113 A 
HETATM    4  C   LIG     1      15.610  31.364  14.588  1.00  0.00     0.037 A 
HETATM    5  C   LIG     1      14.858  30.187  13.936  1.00  0.00     0.179 A 
HETATM    6  O   LIG     1      13.763  29.903  14.785  1.00  0.00    -0.321 OA
ENDROOT
TORSDOF 0
ENDMDL
MODEL 17
REMARK VINA RESULT:      -3.4     10.482     10.998
REMARK  0 active torsions:
REMARK  status: ('A' for Active; 'I' for Inactive)
ROOT
HETATM    1  O   LIG     1      16.307  33.626  15.808  1.00  0.00    -0.265 OA
HETATM    2  C   LIG     1      15.472  32.689  15.911  1.00  0.00     0.258 A 
HETATM    3  C   LIG     1      15.362  31.573  14.954  1.00  0.00     0.113 A 
HETATM    4  C   LIG     1      14.215  30.739  15.538  1.00  0.00     0.037 A 
HETATM    5  C   LIG     1      13.746  31.461  16.816  1.00  0.00     0.179 A 
HETATM    6  O   LIG     1      14.564  32.609  16.941  1.00  0.00    -0.321 OA
ENDROOT
TORSDOF 0
ENDMDL
MODEL 18
REMARK VINA RESULT:      -3.2      8.245      9.156
REMARK  0 active torsions:
REMARK  status: ('A' for Active; 'I' for Inactive)
ROOT
HETATM    1  O   LIG     1      15.453  31.904  19.923  1.00  0.00    -0.265 OA
HETATM    2  C   LIG     1      15.113  32.365  18.803  1.00  0.00     0.258 A 
HETATM    3  C   LIG     1      14.217  31.670  17.861  1.00  0.00     0.113 A 
HETATM    4  C   LIG     1      14.138  32.648  16.684  1.00  0.00     0.037 A 
HETATM    5  C   LIG     1      15.017  33.859  17.052  1.00  0.00     0.179 A 
HETATM    6  O   LIG     1      15.548  33.583  18.334  1.00  0.00    -0.321 OA
ENDROOT
TORSDOF 0
ENDMDL
MODEL 19
REMARK VINA RESULT:      -3.2      9.578     10.618
REMARK  0 active torsions:
REMARK  status: ('A' for Active; 'I' for Inactive)
ROOT
HETATM    1  O   LIG     1      15.297  34.236  17.409  1.00  0.00    -0.265 OA
HETATM    2  C   LIG     1      15.527  33.424  16.474  1.00  0.00     0.258 A 
HETATM    3  C   LIG     1      14.817  32.143  16.301  1.00  0.00     0.113 A 
HETATM    4  C   LIG     1      15.469  31.564  15.040  1.00  0.00     0.037 A 
HETATM    5  C   LIG     1      16.529  32.583  14.578  1.00  0.00     0.179 A 
HETATM    6  O   LIG     1      16.476  33.651  15.505  1.00  0.00    -0.321 OA
ENDROOT
TORSDOF 0
ENDMDL
MODEL 20
REMARK VINA RESULT:      -3.2     11.844     12.445
REMARK  0 active torsions:
REMARK  status: ('A' for Active; 'I' for Inactive)
ROOT
HETATM    1  O   LIG     1      16.270  32.225  15.043  1.00  0.00    -0.265 OA
HETATM    2  C   LIG     1      15.311  31.411  14.996  1.00  0.00     0.258 A 
HETATM    3  C   LIG     1      15.166  30.366  13.965  1.00  0.00     0.113 A 
HETATM    4  C   LIG     1      13.858  29.675  14.366  1.00  0.00     0.037 A 
HETATM    5  C   LIG     1      13.343  30.395  15.627  1.00  0.00     0.179 A 
HETATM    6  O   LIG     1      14.286  31.410  15.913  1.00  0.00    -0.321 OA
ENDROOT
TORSDOF 0
ENDMDL
