REMARK  1 active torsions:
REMARK  status: ('A' for Active; 'I' for Inactive)
REMARK    1  A    between atoms: N_1  and  C_2 
ROOT
HETATM    1  C   LIG     1       0.706  -0.047   0.014  1.00  0.00     0.163 A 
HETATM    2  N   LIG     1      -0.104   0.909   0.515  1.00  0.00    -0.237 NA
HETATM    3  C   LIG     1      -1.412   0.625   0.276  1.00  0.00     0.126 A 
HETATM    4  C   LIG     1      -1.643  -0.560  -0.416  1.00  0.00     0.072 A 
HETATM    5  S   LIG     1      -0.154  -1.277  -0.741  1.00  0.00    -0.063 SA
ENDROOT
BRANCH   1   6
HETATM    6  N   LIG     1       2.126  -0.003   0.121  1.00  0.00    -0.378 N 
HETATM    7  H   LIG     1       2.709  -0.769  -0.284  1.00  0.00     0.158 HD
HETATM    8  H   LIG     1       2.593   0.795   0.605  1.00  0.00     0.158 HD
ENDBRANCH   1   6
TORSDOF 1
