MODEL 1
REMARK VINA RESULT:      -3.8      0.000      0.000
REMARK  1 active torsions:
REMARK  status: ('A' for Active; 'I' for Inactive)
REMARK    1  A    between atoms: N_1  and  C_2 
ROOT
HETATM    1  C   LIG     1      17.519  37.177  25.478  1.00  0.00     0.163 A 
HETATM    2  N   LIG     1      17.056  36.326  24.538  1.00  0.00    -0.237 NA
HETATM    3  C   LIG     1      17.348  35.036  24.851  1.00  0.00     0.126 A 
HETATM    4  C   LIG     1      18.045  34.860  26.043  1.00  0.00     0.072 A 
HETATM    5  S   LIG     1      18.304  36.376  26.729  1.00  0.00    -0.063 SA
ENDROOT
BRANCH   1   6
HETATM    6  N   LIG     1      17.353  38.590  25.402  1.00  0.00    -0.378 N 
HETATM    7  H   LIG     1      18.094  39.185  24.969  1.00  0.00     0.158 HD
HETATM    8  H   LIG     1      16.490  39.039  25.779  1.00  0.00     0.158 HD
ENDBRANCH   1   6
TORSDOF 1
ENDMDL
MODEL 2
REMARK VINA RESULT:      -3.6      2.006      2.509
REMARK  1 active torsions:
REMARK  status: ('A' for Active; 'I' for Inactive)
REMARK    1  A    between atoms: N_1  and  C_2 
ROOT
HETATM    1  C   LIG     1      16.347  37.682  23.962  1.00  0.00     0.163 A 
HETATM    2  N   LIG     1      16.769  38.348  25.057  1.00  0.00    -0.237 NA
HETATM    3  C   LIG     1      17.581  37.574  25.826  1.00  0.00     0.126 A 
HETATM    4  C   LIG     1      17.805  36.289  25.340  1.00  0.00     0.072 A 
HETATM    5  S   LIG     1      16.954  36.117  23.897  1.00  0.00    -0.063 SA
ENDROOT
BRANCH   1   6
HETATM    6  N   LIG     1      15.484  38.255  22.984  1.00  0.00    -0.378 N 
HETATM    7  H   LIG     1      14.939  37.641  22.338  1.00  0.00     0.158 HD
HETATM    8  H   LIG     1      15.391  39.292  22.906  1.00  0.00     0.158 HD
ENDBRANCH   1   6
TORSDOF 1
ENDMDL
MODEL 3
REMARK VINA RESULT:      -3.6      5.941      6.224
REMARK  1 active torsions:
REMARK  status: ('A' for Active; 'I' for Inactive)
REMARK    1  A    between atoms: N_1  and  C_2 
ROOT
HETATM    1  C   LIG     1      19.544  38.803  19.705  1.00  0.00     0.163 A 
HETATM    2  N   LIG     1      18.959  39.452  20.733  1.00  0.00    -0.237 NA
HETATM    3  C   LIG     1      18.082  38.649  21.391  1.00  0.00     0.126 A 
HETATM    4  C   LIG     1      17.970  37.357  20.886  1.00  0.00     0.072 A 
HETATM    5  S   LIG     1      19.007  37.217  19.566  1.00  0.00    -0.063 SA
ENDROOT
BRANCH   1   6
HETATM    6  N   LIG     1      20.506  39.408  18.845  1.00  0.00    -0.378 N 
HETATM    7  H   LIG     1      20.798  40.399  18.995  1.00  0.00     0.158 HD
HETATM    8  H   LIG     1      20.924  38.864  18.058  1.00  0.00     0.158 HD
ENDBRANCH   1   6
TORSDOF 1
ENDMDL
MODEL 4
REMARK VINA RESULT:      -3.6      5.886      6.066
REMARK  1 active torsions:
REMARK  status: ('A' for Active; 'I' for Inactive)
REMARK    1  A    between atoms: N_1  and  C_2 
ROOT
HETATM    1  C   LIG     1      19.548  38.584  19.689  1.00  0.00     0.163 A 
HETATM    2  N   LIG     1      19.223  37.306  19.400  1.00  0.00    -0.237 NA
HETATM    3  C   LIG     1      18.293  36.824  20.266  1.00  0.00     0.126 A 
HETATM    4  C   LIG     1      17.876  37.720  21.246  1.00  0.00     0.072 A 
HETATM    5  S   LIG     1      18.704  39.169  21.019  1.00  0.00    -0.063 SA
ENDROOT
BRANCH   1   6
HETATM    6  N   LIG     1      20.499  39.336  18.942  1.00  0.00    -0.378 N 
HETATM    7  H   LIG     1      20.779  40.292  19.256  1.00  0.00     0.158 HD
HETATM    8  H   LIG     1      20.923  38.937  18.075  1.00  0.00     0.158 HD
ENDBRANCH   1   6
TORSDOF 1
ENDMDL
MODEL 5
REMARK VINA RESULT:      -3.5      2.654      2.967
REMARK  1 active torsions:
REMARK  status: ('A' for Active; 'I' for Inactive)
REMARK    1  A    between atoms: N_1  and  C_2 
ROOT
HETATM    1  C   LIG     1      17.152  37.922  24.334  1.00  0.00     0.163 A 
HETATM    2  N   LIG     1      17.073  36.579  24.219  1.00  0.00    -0.237 NA
HETATM    3  C   LIG     1      16.935  36.201  22.920  1.00  0.00     0.126 A 
HETATM    4  C   LIG     1      16.905  37.244  22.000  1.00  0.00     0.072 A 
HETATM    5  S   LIG     1      17.055  38.694  22.845  1.00  0.00    -0.063 SA
ENDROOT
BRANCH   1   6
HETATM    6  N   LIG     1      17.299  38.591  25.583  1.00  0.00    -0.378 N 
HETATM    7  H   LIG     1      18.162  39.144  25.786  1.00  0.00     0.158 HD
HETATM    8  H   LIG     1      16.546  38.534  26.303  1.00  0.00     0.158 HD
ENDBRANCH   1   6
TORSDOF 1
ENDMDL
MODEL 6
REMARK VINA RESULT:      -3.5      2.277      2.539
REMARK  1 active torsions:
REMARK  status: ('A' for Active; 'I' for Inactive)
REMARK    1  A    between atoms: N_1  and  C_2 
ROOT
HETATM    1  C   LIG     1      17.028  37.920  24.644  1.00  0.00     0.163 A 
HETATM    2  N   LIG     1      16.559  38.442  23.491  1.00  0.00    -0.237 NA
HETATM    3  C   LIG     1      16.425  37.486  22.534  1.00  0.00     0.126 A 
HETATM    4  C   LIG     1      16.787  36.201  22.925  1.00  0.00     0.072 A 
HETATM    5  S   LIG     1      17.295  36.265  24.530  1.00  0.00    -0.063 SA
ENDROOT
BRANCH   1   6
HETATM    6  N   LIG     1      17.265  38.697  25.814  1.00  0.00    -0.378 N 
HETATM    7  H   LIG     1      16.734  38.502  26.693  1.00  0.00     0.158 HD
HETATM    8  H   LIG     1      17.970  39.466  25.802  1.00  0.00     0.158 HD
ENDBRANCH   1   6
TORSDOF 1
ENDMDL
MODEL 7
REMARK VINA RESULT:      -3.3      4.765      5.015
REMARK  1 active torsions:
REMARK  status: ('A' for Active; 'I' for Inactive)
REMARK    1  A    between atoms: N_1  and  C_2 
ROOT
HETATM    1  C   LIG     1      15.627  35.641  21.331  1.00  0.00     0.163 A 
HETATM    2  N   LIG     1      16.577  35.405  20.401  1.00  0.00    -0.237 NA
HETATM    3  C   LIG     1      17.609  36.282  20.516  1.00  0.00     0.126 A 
HETATM    4  C   LIG     1      17.481  37.217  21.538  1.00  0.00     0.072 A 
HETATM    5  S   LIG     1      16.020  36.935  22.327  1.00  0.00    -0.063 SA
ENDROOT
BRANCH   1   6
HETATM    6  N   LIG     1      14.433  34.871  21.440  1.00  0.00    -0.378 N 
HETATM    7  H   LIG     1      13.985  34.723  22.372  1.00  0.00     0.158 HD
HETATM    8  H   LIG     1      13.998  34.451  20.590  1.00  0.00     0.158 HD
ENDBRANCH   1   6
TORSDOF 1
ENDMDL
MODEL 8
REMARK VINA RESULT:      -3.3      9.532     10.165
REMARK  1 active torsions:
REMARK  status: ('A' for Active; 'I' for Inactive)
REMARK    1  A    between atoms: N_1  and  C_2 
ROOT
HETATM    1  C   LIG     1      15.217  33.523  16.892  1.00  0.00     0.163 A 
HETATM    2  N   LIG     1      16.050  33.443  15.833  1.00  0.00    -0.237 NA
HETATM    3  C   LIG     1      15.830  32.309  15.116  1.00  0.00     0.126 A 
HETATM    4  C   LIG     1      14.820  31.486  15.604  1.00  0.00     0.072 A 
HETATM    5  S   LIG     1      14.180  32.205  16.986  1.00  0.00    -0.063 SA
ENDROOT
BRANCH   1   6
HETATM    6  N   LIG     1      15.229  34.609  17.815  1.00  0.00    -0.378 N 
HETATM    7  H   LIG     1      15.660  34.492  18.759  1.00  0.00     0.158 HD
HETATM    8  H   LIG     1      14.808  35.527  17.554  1.00  0.00     0.158 HD
ENDBRANCH   1   6
TORSDOF 1
ENDMDL
MODEL 9
REMARK VINA RESULT:      -3.2      4.052      4.372
REMARK  1 active torsions:
REMARK  status: ('A' for Active; 'I' for Inactive)
REMARK    1  A    between atoms: N_1  and  C_2 
ROOT
HETATM    1  C   LIG     1      16.401  37.805  22.426  1.00  0.00     0.163 A 
HETATM    2  N   LIG     1      17.342  38.668  21.990  1.00  0.00    -0.237 NA
HETATM    3  C   LIG     1      18.167  38.083  21.082  1.00  0.00     0.126 A 
HETATM    4  C   LIG     1      17.882  36.752  20.794  1.00  0.00     0.072 A 
HETATM    5  S   LIG     1      16.547  36.291  21.713  1.00  0.00    -0.063 SA
ENDROOT
BRANCH   1   6
HETATM    6  N   LIG     1      15.404  38.154  23.383  1.00  0.00    -0.378 N 
HETATM    7  H   LIG     1      15.668  38.658  24.259  1.00  0.00     0.158 HD
HETATM    8  H   LIG     1      14.404  37.907  23.215  1.00  0.00     0.158 HD
ENDBRANCH   1   6
TORSDOF 1
ENDMDL
MODEL 10
REMARK VINA RESULT:      -3.2      9.645     10.409
REMARK  1 active torsions:
REMARK  status: ('A' for Active; 'I' for Inactive)
REMARK    1  A    between atoms: N_1  and  C_2 
ROOT
HETATM    1  C   LIG     1      14.298  31.750  17.860  1.00  0.00     0.163 A 
HETATM    2  N   LIG     1      13.577  30.793  17.240  1.00  0.00    -0.237 NA
HETATM    3  C   LIG     1      13.839  30.762  15.906  1.00  0.00     0.126 A 
HETATM    4  C   LIG     1      14.771  31.697  15.465  1.00  0.00     0.072 A 
HETATM    5  S   LIG     1      15.284  32.595  16.794  1.00  0.00    -0.063 SA
ENDROOT
BRANCH   1   6
HETATM    6  N   LIG     1      14.219  32.003  19.260  1.00  0.00    -0.378 N 
HETATM    7  H   LIG     1      13.763  32.874  19.614  1.00  0.00     0.158 HD
HETATM    8  H   LIG     1      14.616  31.320  19.942  1.00  0.00     0.158 HD
ENDBRANCH   1   6
TORSDOF 1
ENDMDL
MODEL 11
REMARK VINA RESULT:      -3.2      4.549      4.785
REMARK  1 active torsions:
REMARK  status: ('A' for Active; 'I' for Inactive)
REMARK    1  A    between atoms: N_1  and  C_2 
ROOT
HETATM    1  C   LIG     1      17.455  38.455  21.930  1.00  0.00     0.163 A 
HETATM    2  N   LIG     1      17.209  37.167  21.611  1.00  0.00    -0.237 NA
HETATM    3  C   LIG     1      17.987  36.757  20.574  1.00  0.00     0.126 A 
HETATM    4  C   LIG     1      18.853  37.721  20.067  1.00  0.00     0.072 A 
HETATM    5  S   LIG     1      18.636  39.139  20.950  1.00  0.00    -0.063 SA
ENDROOT
BRANCH   1   6
HETATM    6  N   LIG     1      16.780  39.142  22.981  1.00  0.00    -0.378 N 
HETATM    7  H   LIG     1      15.737  39.158  23.015  1.00  0.00     0.158 HD
HETATM    8  H   LIG     1      17.325  39.634  23.723  1.00  0.00     0.158 HD
ENDBRANCH   1   6
TORSDOF 1
ENDMDL
MODEL 12
REMARK VINA RESULT:      -3.2     11.047     11.450
REMARK  1 active torsions:
REMARK  status: ('A' for Active; 'I' for Inactive)
REMARK    1  A    between atoms: N_1  and  C_2 
ROOT
HETATM    1  C   LIG     1      13.693  31.071  16.217  1.00  0.00     0.163 A 
HETATM    2  N   LIG     1      14.391  30.717  15.118  1.00  0.00    -0.237 NA
HETATM    3  C   LIG     1      15.470  31.524  14.935  1.00  0.00     0.126 A 
HETATM    4  C   LIG     1      15.630  32.522  15.891  1.00  0.00     0.072 A 
HETATM    5  S   LIG     1      14.374  32.389  17.005  1.00  0.00    -0.063 SA
ENDROOT
BRANCH   1   6
HETATM    6  N   LIG     1      12.514  30.395  16.645  1.00  0.00    -0.378 N 
HETATM    7  H   LIG     1      12.219  30.433  17.647  1.00  0.00     0.158 HD
HETATM    8  H   LIG     1      11.937  29.858  15.961  1.00  0.00     0.158 HD
ENDBRANCH   1   6
TORSDOF 1
ENDMDL
MODEL 13
REMARK VINA RESULT:      -3.1     12.353     13.098
REMARK  1 active torsions:
REMARK  status: ('A' for Active; 'I' for Inactive)
REMARK    1  A    between atoms: N_1  and  C_2 
ROOT
HETATM    1  C   LIG     1      13.664  29.750  14.467  1.00  0.00     0.163 A 
HETATM    2  N   LIG     1      14.797  30.089  13.818  1.00  0.00    -0.237 NA
HETATM    3  C   LIG     1      15.457  31.088  14.462  1.00  0.00     0.126 A 
HETATM    4  C   LIG     1      14.848  31.544  15.627  1.00  0.00     0.072 A 
HETATM    5  S   LIG     1      13.430  30.664  15.857  1.00  0.00    -0.063 SA
ENDROOT
BRANCH   1   6
HETATM    6  N   LIG     1      12.778  28.731  14.013  1.00  0.00    -0.378 N 
HETATM    7  H   LIG     1      11.901  28.521  14.541  1.00  0.00     0.158 HD
HETATM    8  H   LIG     1      12.998  28.189  13.149  1.00  0.00     0.158 HD
ENDBRANCH   1   6
TORSDOF 1
ENDMDL
MODEL 14
REMARK VINA RESULT:      -3.1      9.735     10.354
REMARK  1 active torsions:
REMARK  status: ('A' for Active; 'I' for Inactive)
REMARK    1  A    between atoms: N_1  and  C_2 
ROOT
HETATM    1  C   LIG     1      15.670  33.963  16.338  1.00  0.00     0.163 A 
HETATM    2  N   LIG     1      16.663  34.672  15.762  1.00  0.00    -0.237 NA
HETATM    3  C   LIG     1      17.370  33.911  14.884  1.00  0.00     0.126 A 
HETATM    4  C   LIG     1      16.936  32.594  14.761  1.00  0.00     0.072 A 
HETATM    5  S   LIG     1      15.622  32.376  15.791  1.00  0.00    -0.063 SA
ENDROOT
BRANCH   1   6
HETATM    6  N   LIG     1      14.774  34.514  17.300  1.00  0.00    -0.378 N 
HETATM    7  H   LIG     1      14.540  33.982  18.168  1.00  0.00     0.158 HD
HETATM    8  H   LIG     1      14.345  35.452  17.143  1.00  0.00     0.158 HD
ENDBRANCH   1   6
TORSDOF 1
ENDMDL
MODEL 15
REMARK VINA RESULT:      -3.0     11.496     12.183
REMARK  1 active torsions:
REMARK  status: ('A' for Active; 'I' for Inactive)
REMARK    1  A    between atoms: N_1  and  C_2 
ROOT
HETATM    1  C   LIG     1      15.601  31.835  15.218  1.00  0.00     0.163 A 
HETATM    2  N   LIG     1      16.065  31.398  14.029  1.00  0.00    -0.237 NA
HETATM    3  C   LIG     1      15.320  30.363  13.558  1.00  0.00     0.126 A 
HETATM    4  C   LIG     1      14.261  29.976  14.374  1.00  0.00     0.072 A 
HETATM    5  S   LIG     1      14.260  30.967  15.736  1.00  0.00    -0.063 SA
ENDROOT
BRANCH   1   6
HETATM    6  N   LIG     1      16.194  32.911  15.940  1.00  0.00    -0.378 N 
HETATM    7  H   LIG     1      16.099  32.965  16.979  1.00  0.00     0.158 HD
HETATM    8  H   LIG     1      16.728  33.653  15.435  1.00  0.00     0.158 HD
ENDBRANCH   1   6
TORSDOF 1
ENDMDL
MODEL 16
REMARK VINA RESULT:      -2.9      9.835     10.501
REMARK  1 active torsions:
REMARK  status: ('A' for Active; 'I' for Inactive)
REMARK    1  A    between atoms: N_1  and  C_2 
ROOT
HETATM    1  C   LIG     1      16.476  33.283  15.391  1.00  0.00     0.163 A 
HETATM    2  N   LIG     1      16.162  34.366  16.133  1.00  0.00    -0.237 NA
HETATM    3  C   LIG     1      15.076  34.131  16.916  1.00  0.00     0.126 A 
HETATM    4  C   LIG     1      14.525  32.858  16.797  1.00  0.00     0.072 A 
HETATM    5  S   LIG     1      15.432  31.997  15.670  1.00  0.00    -0.063 SA
ENDROOT
BRANCH   1   6
HETATM    6  N   LIG     1      17.572  33.251  14.481  1.00  0.00    -0.378 N 
HETATM    7  H   LIG     1      17.988  34.140  14.125  1.00  0.00     0.158 HD
HETATM    8  H   LIG     1      17.966  32.338  14.163  1.00  0.00     0.158 HD
ENDBRANCH   1   6
TORSDOF 1
ENDMDL
MODEL 17
REMARK VINA RESULT:      -2.9     10.505     11.071
REMARK  1 active torsions:
REMARK  status: ('A' for Active; 'I' for Inactive)
REMARK    1  A    between atoms: N_1  and  C_2 
ROOT
HETATM    1  C   LIG     1      15.570  32.385  15.809  1.00  0.00     0.163 A 
HETATM    2  N   LIG     1      15.364  31.439  14.869  1.00  0.00    -0.237 NA
HETATM    3  C   LIG     1      14.327  30.626  15.203  1.00  0.00     0.126 A 
HETATM    4  C   LIG     1      13.707  30.925  16.412  1.00  0.00     0.072 A 
HETATM    5  S   LIG     1      14.486  32.257  17.087  1.00  0.00    -0.063 SA
ENDROOT
BRANCH   1   6
HETATM    6  N   LIG     1      16.594  33.371  15.715  1.00  0.00    -0.378 N 
HETATM    7  H   LIG     1      17.469  33.172  15.181  1.00  0.00     0.158 HD
HETATM    8  H   LIG     1      16.477  34.297  16.180  1.00  0.00     0.158 HD
ENDBRANCH   1   6
TORSDOF 1
ENDMDL
MODEL 18
REMARK VINA RESULT:      -2.9      4.735      4.993
REMARK  1 active torsions:
REMARK  status: ('A' for Active; 'I' for Inactive)
REMARK    1  A    between atoms: N_1  and  C_2 
ROOT
HETATM    1  C   LIG     1      17.318  36.109  20.660  1.00  0.00     0.163 A 
HETATM    2  N   LIG     1      16.632  35.427  19.719  1.00  0.00    -0.237 NA
HETATM    3  C   LIG     1      15.684  34.630  20.278  1.00  0.00     0.126 A 
HETATM    4  C   LIG     1      15.614  34.678  21.667  1.00  0.00     0.072 A 
HETATM    5  S   LIG     1      16.785  35.758  22.214  1.00  0.00    -0.063 SA
ENDROOT
BRANCH   1   6
HETATM    6  N   LIG     1      18.372  37.018  20.355  1.00  0.00    -0.378 N 
HETATM    7  H   LIG     1      19.300  36.661  20.037  1.00  0.00     0.158 HD
HETATM    8  H   LIG     1      18.222  38.047  20.447  1.00  0.00     0.158 HD
ENDBRANCH   1   6
TORSDOF 1
ENDMDL
MODEL 19
REMARK VINA RESULT:      -2.8     11.726     12.265
REMARK  1 active torsions:
REMARK  status: ('A' for Active; 'I' for Inactive)
REMARK    1  A    between atoms: N_1  and  C_2 
ROOT
HETATM    1  C   LIG     1      17.244  32.936  13.343  1.00  0.00     0.163 A 
HETATM    2  N   LIG     1      16.351  31.927  13.273  1.00  0.00    -0.237 NA
HETATM    3  C   LIG     1      15.788  31.679  14.486  1.00  0.00     0.126 A 
HETATM    4  C   LIG     1      16.234  32.494  15.523  1.00  0.00     0.072 A 
HETATM    5  S   LIG     1      17.376  33.562  14.897  1.00  0.00    -0.063 SA
ENDROOT
BRANCH   1   6
HETATM    6  N   LIG     1      17.983  33.405  12.219  1.00  0.00    -0.378 N 
HETATM    7  H   LIG     1      17.537  33.448  11.276  1.00  0.00     0.158 HD
HETATM    8  H   LIG     1      18.975  33.709  12.331  1.00  0.00     0.158 HD
ENDBRANCH   1   6
TORSDOF 1
ENDMDL
MODEL 20
REMARK VINA RESULT:      -2.7     11.789     12.395
REMARK  1 active torsions:
REMARK  status: ('A' for Active; 'I' for Inactive)
REMARK    1  A    between atoms: N_1  and  C_2 
ROOT
HETATM    1  C   LIG     1      16.046  31.773  13.895  1.00  0.00     0.163 A 
HETATM    2  N   LIG     1      16.954  32.328  13.065  1.00  0.00    -0.237 NA
HETATM    3  C   LIG     1      17.632  33.335  13.677  1.00  0.00     0.126 A 
HETATM    4  C   LIG     1      17.265  33.581  14.996  1.00  0.00     0.072 A 
HETATM    5  S   LIG     1      16.044  32.497  15.411  1.00  0.00    -0.063 SA
ENDROOT
BRANCH   1   6
HETATM    6  N   LIG     1      15.195  30.696  13.514  1.00  0.00    -0.378 N 
HETATM    7  H   LIG     1      14.172  30.856  13.376  1.00  0.00     0.158 HD
HETATM    8  H   LIG     1      15.588  29.740  13.370  1.00  0.00     0.158 HD
ENDBRANCH   1   6
TORSDOF 1
ENDMDL
