MODEL 1
REMARK VINA RESULT:      -6.5      0.000      0.000
REMARK  2 active torsions:
REMARK  status: ('A' for Active; 'I' for Inactive)
REMARK    1  A    between atoms: C_7  and  C_8 
REMARK       I    between atoms: C_8  and  N_9 
REMARK    2  A    between atoms: N_9  and  C_10 
ROOT
HETATM    1  C   LIG     1      15.115  34.121  17.549  1.00  0.00     0.255 C 
HETATM    2  N   LIG     1      15.745  32.871  17.238  1.00  0.00    -0.324 N 
HETATM    3  O   LIG     1      14.454  34.732  16.665  1.00  0.00    -0.271 OA
HETATM    4  H   LIG     1      16.424  32.467  17.921  1.00  0.00     0.169 HD
ENDROOT
BRANCH   2   5
HETATM    5  C   LIG     1      15.622  32.251  15.949  1.00  0.00     0.046 A 
HETATM    6  C   LIG     1      16.457  32.646  14.877  1.00  0.00    -0.035 A 
HETATM    7  C   LIG     1      16.335  32.003  13.635  1.00  0.00     0.009 A 
HETATM    8  C   LIG     1      17.491  33.728  15.040  1.00  0.00     0.050 C 
HETATM    9  C   LIG     1      15.369  31.016  13.440  1.00  0.00     0.001 A 
HETATM   10  C   LIG     1      14.518  30.652  14.483  1.00  0.00     0.009 A 
HETATM   11  C   LIG     1      14.635  31.261  15.742  1.00  0.00    -0.035 A 
HETATM   12  C   LIG     1      13.716  30.847  16.858  1.00  0.00     0.050 C 
ENDBRANCH   2   5
BRANCH   1  13
HETATM   13  C   LIG     1      15.262  34.701  18.938  1.00  0.00     0.314 C 
HETATM   14  N   LIG     1      14.936  33.699  19.982  1.00  0.00     0.098 N 
HETATM   15  C   LIG     1      15.838  32.528  19.975  1.00  0.00     0.310 C 
HETATM   16  C   LIG     1      14.832  34.302  21.340  1.00  0.00     0.273 C 
HETATM   17  C   LIG     1      15.592  35.638  21.501  1.00  0.00     0.030 C 
HETATM   18  C   LIG     1      16.886  35.655  20.685  1.00  0.00     0.004 C 
HETATM   19  C   LIG     1      16.639  35.364  19.191  1.00  0.00     0.046 C 
ENDBRANCH   1  13
TORSDOF 2
ENDMDL
MODEL 2
REMARK VINA RESULT:      -6.2      0.143      2.051
REMARK  2 active torsions:
REMARK  status: ('A' for Active; 'I' for Inactive)
REMARK    1  A    between atoms: C_7  and  C_8 
REMARK       I    between atoms: C_8  and  N_9 
REMARK    2  A    between atoms: N_9  and  C_10 
ROOT
HETATM    1  C   LIG     1      15.107  34.179  17.594  1.00  0.00     0.255 C 
HETATM    2  N   LIG     1      15.815  32.978  17.257  1.00  0.00    -0.324 N 
HETATM    3  O   LIG     1      14.326  34.708  16.755  1.00  0.00    -0.271 OA
HETATM    4  H   LIG     1      16.580  32.652  17.889  1.00  0.00     0.169 HD
ENDROOT
BRANCH   2   5
HETATM    5  C   LIG     1      15.641  32.315  15.995  1.00  0.00     0.046 A 
HETATM    6  C   LIG     1      14.665  31.302  15.842  1.00  0.00    -0.035 A 
HETATM    7  C   LIG     1      14.497  30.691  14.590  1.00  0.00     0.009 A 
HETATM    8  C   LIG     1      13.786  30.875  16.986  1.00  0.00     0.050 C 
HETATM    9  C   LIG     1      15.313  31.042  13.515  1.00  0.00     0.001 A 
HETATM   10  C   LIG     1      16.302  32.011  13.672  1.00  0.00     0.009 A 
HETATM   11  C   LIG     1      16.475  32.656  14.907  1.00  0.00    -0.035 A 
HETATM   12  C   LIG     1      17.540  33.708  15.055  1.00  0.00     0.050 C 
ENDBRANCH   2   5
BRANCH   1  13
HETATM   13  C   LIG     1      15.316  34.806  18.954  1.00  0.00     0.314 C 
HETATM   14  N   LIG     1      14.933  33.878  20.045  1.00  0.00     0.098 N 
HETATM   15  C   LIG     1      15.747  32.645  20.081  1.00  0.00     0.310 C 
HETATM   16  C   LIG     1      14.893  34.546  21.375  1.00  0.00     0.273 C 
HETATM   17  C   LIG     1      15.751  35.828  21.468  1.00  0.00     0.030 C 
HETATM   18  C   LIG     1      17.031  35.714  20.638  1.00  0.00     0.004 C 
HETATM   19  C   LIG     1      16.742  35.377  19.162  1.00  0.00     0.046 C 
ENDBRANCH   1  13
TORSDOF 2
ENDMDL
MODEL 3
REMARK VINA RESULT:      -6.0      3.006      7.686
REMARK  2 active torsions:
REMARK  status: ('A' for Active; 'I' for Inactive)
REMARK    1  A    between atoms: C_7  and  C_8 
REMARK       I    between atoms: C_8  and  N_9 
REMARK    2  A    between atoms: N_9  and  C_10 
ROOT
HETATM    1  C   LIG     1      15.992  35.421  21.243  1.00  0.00     0.255 C 
HETATM    2  N   LIG     1      17.213  35.614  21.972  1.00  0.00    -0.324 N 
HETATM    3  O   LIG     1      14.972  36.108  21.526  1.00  0.00    -0.271 OA
HETATM    4  H   LIG     1      17.988  34.927  21.844  1.00  0.00     0.169 HD
ENDROOT
BRANCH   2   5
HETATM    5  C   LIG     1      17.339  36.604  23.005  1.00  0.00     0.046 A 
HETATM    6  C   LIG     1      17.577  37.960  22.678  1.00  0.00    -0.035 A 
HETATM    7  C   LIG     1      17.668  38.911  23.706  1.00  0.00     0.009 A 
HETATM    8  C   LIG     1      17.717  38.414  21.250  1.00  0.00     0.050 C 
HETATM    9  C   LIG     1      17.570  38.522  25.042  1.00  0.00     0.001 A 
HETATM   10  C   LIG     1      17.376  37.181  25.369  1.00  0.00     0.009 A 
HETATM   11  C   LIG     1      17.256  36.213  24.360  1.00  0.00    -0.035 A 
HETATM   12  C   LIG     1      17.035  34.772  24.731  1.00  0.00     0.050 C 
ENDBRANCH   2   5
BRANCH   1  13
HETATM   13  C   LIG     1      15.940  34.381  20.146  1.00  0.00     0.314 C 
HETATM   14  N   LIG     1      15.516  33.060  20.669  1.00  0.00     0.098 N 
HETATM   15  C   LIG     1      14.152  33.062  21.238  1.00  0.00     0.310 C 
HETATM   16  C   LIG     1      15.692  31.967  19.674  1.00  0.00     0.273 C 
HETATM   17  C   LIG     1      15.726  32.448  18.205  1.00  0.00     0.030 C 
HETATM   18  C   LIG     1      14.787  33.634  17.975  1.00  0.00     0.004 C 
HETATM   19  C   LIG     1      15.090  34.811  18.923  1.00  0.00     0.046 C 
ENDBRANCH   1  13
TORSDOF 2
ENDMDL
MODEL 4
REMARK VINA RESULT:      -5.9      3.008      7.883
REMARK  2 active torsions:
REMARK  status: ('A' for Active; 'I' for Inactive)
REMARK    1  A    between atoms: C_7  and  C_8 
REMARK       I    between atoms: C_8  and  N_9 
REMARK    2  A    between atoms: N_9  and  C_10 
ROOT
HETATM    1  C   LIG     1      16.000  35.401  21.256  1.00  0.00     0.255 C 
HETATM    2  N   LIG     1      17.232  35.607  21.961  1.00  0.00    -0.324 N 
HETATM    3  O   LIG     1      14.974  36.064  21.571  1.00  0.00    -0.271 OA
HETATM    4  H   LIG     1      18.018  34.936  21.807  1.00  0.00     0.169 HD
ENDROOT
BRANCH   2   5
HETATM    5  C   LIG     1      17.363  36.584  23.005  1.00  0.00     0.046 A 
HETATM    6  C   LIG     1      17.245  36.206  24.365  1.00  0.00    -0.035 A 
HETATM    7  C   LIG     1      17.405  37.176  25.366  1.00  0.00     0.009 A 
HETATM    8  C   LIG     1      16.970  34.782  24.766  1.00  0.00     0.050 C 
HETATM    9  C   LIG     1      17.633  38.510  25.030  1.00  0.00     0.001 A 
HETATM   10  C   LIG     1      17.710  38.893  23.692  1.00  0.00     0.009 A 
HETATM   11  C   LIG     1      17.578  37.940  22.670  1.00  0.00    -0.035 A 
HETATM   12  C   LIG     1      17.676  38.369  21.233  1.00  0.00     0.050 C 
ENDBRANCH   2   5
BRANCH   1  13
HETATM   13  C   LIG     1      15.943  34.376  20.146  1.00  0.00     0.314 C 
HETATM   14  N   LIG     1      15.515  33.050  20.651  1.00  0.00     0.098 N 
HETATM   15  C   LIG     1      14.152  33.049  21.221  1.00  0.00     0.310 C 
HETATM   16  C   LIG     1      15.687  31.970  19.641  1.00  0.00     0.273 C 
HETATM   17  C   LIG     1      15.721  32.470  18.179  1.00  0.00     0.030 C 
HETATM   18  C   LIG     1      14.786  33.662  17.965  1.00  0.00     0.004 C 
HETATM   19  C   LIG     1      15.095  34.826  18.929  1.00  0.00     0.046 C 
ENDBRANCH   1  13
TORSDOF 2
ENDMDL
MODEL 5
REMARK VINA RESULT:      -5.4     14.182     15.336
REMARK  2 active torsions:
REMARK  status: ('A' for Active; 'I' for Inactive)
REMARK    1  A    between atoms: C_7  and  C_8 
REMARK       I    between atoms: C_8  and  N_9 
REMARK    2  A    between atoms: N_9  and  C_10 
ROOT
HETATM    1  C   LIG     1      26.032  23.537  18.290  1.00  0.00     0.255 C 
HETATM    2  N   LIG     1      27.445  23.711  18.469  1.00  0.00    -0.324 N 
HETATM    3  O   LIG     1      25.343  24.458  17.772  1.00  0.00    -0.271 OA
HETATM    4  H   LIG     1      27.967  23.018  19.050  1.00  0.00     0.169 HD
ENDROOT
BRANCH   2   5
HETATM    5  C   LIG     1      28.131  24.897  18.038  1.00  0.00     0.046 A 
HETATM    6  C   LIG     1      28.772  24.941  16.777  1.00  0.00    -0.035 A 
HETATM    7  C   LIG     1      29.410  26.122  16.369  1.00  0.00     0.009 A 
HETATM    8  C   LIG     1      28.771  23.755  15.851  1.00  0.00     0.050 C 
HETATM    9  C   LIG     1      29.455  27.231  17.214  1.00  0.00     0.001 A 
HETATM   10  C   LIG     1      28.858  27.178  18.473  1.00  0.00     0.009 A 
HETATM   11  C   LIG     1      28.192  26.018  18.896  1.00  0.00    -0.035 A 
HETATM   12  C   LIG     1      27.545  25.983  20.253  1.00  0.00     0.050 C 
ENDBRANCH   2   5
BRANCH   1  13
HETATM   13  C   LIG     1      25.381  22.248  18.740  1.00  0.00     0.314 C 
HETATM   14  N   LIG     1      25.495  22.064  20.207  1.00  0.00     0.098 N 
HETATM   15  C   LIG     1      24.808  23.115  20.987  1.00  0.00     0.310 C 
HETATM   16  C   LIG     1      25.088  20.701  20.646  1.00  0.00     0.273 C 
HETATM   17  C   LIG     1      24.142  19.975  19.662  1.00  0.00     0.030 C 
HETATM   18  C   LIG     1      23.178  20.947  18.980  1.00  0.00     0.004 C 
HETATM   19  C   LIG     1      23.917  22.091  18.256  1.00  0.00     0.046 C 
ENDBRANCH   1  13
TORSDOF 2
ENDMDL
MODEL 6
REMARK VINA RESULT:      -5.3     14.057     15.374
REMARK  2 active torsions:
REMARK  status: ('A' for Active; 'I' for Inactive)
REMARK    1  A    between atoms: C_7  and  C_8 
REMARK       I    between atoms: C_8  and  N_9 
REMARK    2  A    between atoms: N_9  and  C_10 
ROOT
HETATM    1  C   LIG     1      26.359  24.427  18.856  1.00  0.00     0.255 C 
HETATM    2  N   LIG     1      26.113  23.068  19.245  1.00  0.00    -0.324 N 
HETATM    3  O   LIG     1      25.682  25.362  19.366  1.00  0.00    -0.271 OA
HETATM    4  H   LIG     1      26.556  22.299  18.694  1.00  0.00     0.169 HD
ENDROOT
BRANCH   2   5
HETATM    5  C   LIG     1      25.136  22.721  20.239  1.00  0.00     0.046 A 
HETATM    6  C   LIG     1      25.439  22.835  21.617  1.00  0.00    -0.035 A 
HETATM    7  C   LIG     1      24.457  22.517  22.567  1.00  0.00     0.009 A 
HETATM    8  C   LIG     1      26.787  23.308  22.092  1.00  0.00     0.050 C 
HETATM    9  C   LIG     1      23.206  22.048  22.164  1.00  0.00     0.001 A 
HETATM   10  C   LIG     1      22.918  21.897  20.809  1.00  0.00     0.009 A 
HETATM   11  C   LIG     1      23.873  22.232  19.836  1.00  0.00    -0.035 A 
HETATM   12  C   LIG     1      23.540  22.073  18.379  1.00  0.00     0.050 C 
ENDBRANCH   2   5
BRANCH   1  13
HETATM   13  C   LIG     1      27.425  24.721  17.825  1.00  0.00     0.314 C 
HETATM   14  N   LIG     1      28.364  25.767  18.296  1.00  0.00     0.098 N 
HETATM   15  C   LIG     1      29.120  25.377  19.505  1.00  0.00     0.310 C 
HETATM   16  C   LIG     1      29.268  26.252  17.218  1.00  0.00     0.273 C 
HETATM   17  C   LIG     1      29.455  25.256  16.051  1.00  0.00     0.030 C 
HETATM   18  C   LIG     1      29.452  23.806  16.538  1.00  0.00     0.004 C 
HETATM   19  C   LIG     1      28.176  23.458  17.331  1.00  0.00     0.046 C 
ENDBRANCH   1  13
TORSDOF 2
ENDMDL
MODEL 7
REMARK VINA RESULT:      -5.3     14.215     15.406
REMARK  2 active torsions:
REMARK  status: ('A' for Active; 'I' for Inactive)
REMARK    1  A    between atoms: C_7  and  C_8 
REMARK       I    between atoms: C_8  and  N_9 
REMARK    2  A    between atoms: N_9  and  C_10 
ROOT
HETATM    1  C   LIG     1      26.096  23.575  18.281  1.00  0.00     0.255 C 
HETATM    2  N   LIG     1      27.514  23.734  18.431  1.00  0.00    -0.324 N 
HETATM    3  O   LIG     1      25.398  24.524  17.830  1.00  0.00    -0.271 OA
HETATM    4  H   LIG     1      28.047  23.009  18.960  1.00  0.00     0.169 HD
ENDROOT
BRANCH   2   5
HETATM    5  C   LIG     1      28.193  24.938  18.045  1.00  0.00     0.046 A 
HETATM    6  C   LIG     1      28.249  26.047  18.922  1.00  0.00    -0.035 A 
HETATM    7  C   LIG     1      28.944  27.201  18.531  1.00  0.00     0.009 A 
HETATM    8  C   LIG     1      27.595  26.014  20.277  1.00  0.00     0.050 C 
HETATM    9  C   LIG     1      29.539  27.278  17.272  1.00  0.00     0.001 A 
HETATM   10  C   LIG     1      29.452  26.202  16.389  1.00  0.00     0.009 A 
HETATM   11  C   LIG     1      28.784  25.026  16.764  1.00  0.00    -0.035 A 
HETATM   12  C   LIG     1      28.711  23.872  15.803  1.00  0.00     0.050 C 
ENDBRANCH   2   5
BRANCH   1  13
HETATM   13  C   LIG     1      25.450  22.266  18.680  1.00  0.00     0.314 C 
HETATM   14  N   LIG     1      25.582  22.016  20.135  1.00  0.00     0.098 N 
HETATM   15  C   LIG     1      24.904  23.030  20.970  1.00  0.00     0.310 C 
HETATM   16  C   LIG     1      25.180  20.635  20.517  1.00  0.00     0.273 C 
HETATM   17  C   LIG     1      24.223  19.953  19.513  1.00  0.00     0.030 C 
HETATM   18  C   LIG     1      23.250  20.955  18.887  1.00  0.00     0.004 C 
HETATM   19  C   LIG     1      23.980  22.130  18.207  1.00  0.00     0.046 C 
ENDBRANCH   1  13
TORSDOF 2
ENDMDL
MODEL 8
REMARK VINA RESULT:      -5.3     14.717     15.454
REMARK  2 active torsions:
REMARK  status: ('A' for Active; 'I' for Inactive)
REMARK    1  A    between atoms: C_7  and  C_8 
REMARK       I    between atoms: C_8  and  N_9 
REMARK    2  A    between atoms: N_9  and  C_10 
ROOT
HETATM    1  C   LIG     1      23.616  21.750  21.934  1.00  0.00     0.255 C 
HETATM    2  N   LIG     1      24.233  20.888  20.968  1.00  0.00    -0.324 N 
HETATM    3  O   LIG     1      22.367  21.923  21.919  1.00  0.00    -0.271 OA
HETATM    4  H   LIG     1      25.274  20.889  20.885  1.00  0.00     0.169 HD
ENDROOT
BRANCH   2   5
HETATM    5  C   LIG     1      23.471  20.168  19.987  1.00  0.00     0.046 A 
HETATM    6  C   LIG     1      23.233  20.725  18.708  1.00  0.00    -0.035 A 
HETATM    7  C   LIG     1      22.509  19.987  17.759  1.00  0.00     0.009 A 
HETATM    8  C   LIG     1      23.756  22.085  18.331  1.00  0.00     0.050 C 
HETATM    9  C   LIG     1      21.986  18.736  18.083  1.00  0.00     0.001 A 
HETATM   10  C   LIG     1      22.184  18.201  19.355  1.00  0.00     0.009 A 
HETATM   11  C   LIG     1      22.926  18.906  20.315  1.00  0.00    -0.035 A 
HETATM   12  C   LIG     1      23.139  18.308  21.679  1.00  0.00     0.050 C 
ENDBRANCH   2   5
BRANCH   1  13
HETATM   13  C   LIG     1      24.479  22.453  22.958  1.00  0.00     0.314 C 
HETATM   14  N   LIG     1      24.278  21.892  24.316  1.00  0.00     0.098 N 
HETATM   15  C   LIG     1      24.662  20.469  24.427  1.00  0.00     0.310 C 
HETATM   16  C   LIG     1      24.920  22.716  25.376  1.00  0.00     0.273 C 
HETATM   17  C   LIG     1      26.077  23.608  24.873  1.00  0.00     0.030 C 
HETATM   18  C   LIG     1      26.875  22.926  23.759  1.00  0.00     0.004 C 
HETATM   19  C   LIG     1      25.980  22.502  22.576  1.00  0.00     0.046 C 
ENDBRANCH   1  13
TORSDOF 2
ENDMDL
MODEL 9
REMARK VINA RESULT:      -5.2     14.162     15.592
REMARK  2 active torsions:
REMARK  status: ('A' for Active; 'I' for Inactive)
REMARK    1  A    between atoms: C_7  and  C_8 
REMARK       I    between atoms: C_8  and  N_9 
REMARK    2  A    between atoms: N_9  and  C_10 
ROOT
HETATM    1  C   LIG     1      26.541  22.967  20.588  1.00  0.00     0.255 C 
HETATM    2  N   LIG     1      25.405  23.409  21.344  1.00  0.00    -0.324 N 
HETATM    3  O   LIG     1      26.910  21.762  20.649  1.00  0.00    -0.271 OA
HETATM    4  H   LIG     1      25.218  24.434  21.418  1.00  0.00     0.169 HD
ENDROOT
BRANCH   2   5
HETATM    5  C   LIG     1      24.629  22.513  22.155  1.00  0.00     0.046 A 
HETATM    6  C   LIG     1      23.506  21.842  21.614  1.00  0.00    -0.035 A 
HETATM    7  C   LIG     1      22.782  20.950  22.420  1.00  0.00     0.009 A 
HETATM    8  C   LIG     1      23.077  22.048  20.187  1.00  0.00     0.050 C 
HETATM    9  C   LIG     1      23.135  20.757  23.756  1.00  0.00     0.001 A 
HETATM   10  C   LIG     1      24.216  21.445  24.303  1.00  0.00     0.009 A 
HETATM   11  C   LIG     1      24.973  22.325  23.512  1.00  0.00    -0.035 A 
HETATM   12  C   LIG     1      26.143  23.050  24.116  1.00  0.00     0.050 C 
ENDBRANCH   2   5
BRANCH   1  13
HETATM   13  C   LIG     1      27.293  23.960  19.731  1.00  0.00     0.314 C 
HETATM   14  N   LIG     1      27.009  23.760  18.290  1.00  0.00     0.098 N 
HETATM   15  C   LIG     1      25.590  23.970  17.936  1.00  0.00     0.310 C 
HETATM   16  C   LIG     1      27.915  24.551  17.413  1.00  0.00     0.273 C 
HETATM   17  C   LIG     1      28.546  25.783  18.100  1.00  0.00     0.030 C 
HETATM   18  C   LIG     1      27.583  26.433  19.095  1.00  0.00     0.004 C 
HETATM   19  C   LIG     1      27.079  25.435  20.157  1.00  0.00     0.046 C 
ENDBRANCH   1  13
TORSDOF 2
ENDMDL
MODEL 10
REMARK VINA RESULT:      -5.2     14.220     15.310
REMARK  2 active torsions:
REMARK  status: ('A' for Active; 'I' for Inactive)
REMARK    1  A    between atoms: C_7  and  C_8 
REMARK       I    between atoms: C_8  and  N_9 
REMARK    2  A    between atoms: N_9  and  C_10 
ROOT
HETATM    1  C   LIG     1      26.756  24.713  19.808  1.00  0.00     0.255 C 
HETATM    2  N   LIG     1      26.628  23.342  20.209  1.00  0.00    -0.324 N 
HETATM    3  O   LIG     1      25.745  25.467  19.806  1.00  0.00    -0.271 OA
HETATM    4  H   LIG     1      27.430  22.693  20.043  1.00  0.00     0.169 HD
ENDROOT
BRANCH   2   5
HETATM    5  C   LIG     1      25.381  22.788  20.655  1.00  0.00     0.046 A 
HETATM    6  C   LIG     1      24.407  22.362  19.720  1.00  0.00    -0.035 A 
HETATM    7  C   LIG     1      23.208  21.797  20.183  1.00  0.00     0.009 A 
HETATM    8  C   LIG     1      24.632  22.480  18.237  1.00  0.00     0.050 C 
HETATM    9  C   LIG     1      22.954  21.697  21.551  1.00  0.00     0.001 A 
HETATM   10  C   LIG     1      23.894  22.153  22.474  1.00  0.00     0.009 A 
HETATM   11  C   LIG     1      25.112  22.698  22.039  1.00  0.00    -0.035 A 
HETATM   12  C   LIG     1      26.119  23.173  23.050  1.00  0.00     0.050 C 
ENDBRANCH   2   5
BRANCH   1  13
HETATM   13  C   LIG     1      28.109  25.238  19.379  1.00  0.00     0.314 C 
HETATM   14  N   LIG     1      28.736  24.357  18.365  1.00  0.00     0.098 N 
HETATM   15  C   LIG     1      27.963  24.264  17.109  1.00  0.00     0.310 C 
HETATM   16  C   LIG     1      30.160  24.707  18.107  1.00  0.00     0.273 C 
HETATM   17  C   LIG     1      30.532  26.162  18.470  1.00  0.00     0.030 C 
HETATM   18  C   LIG     1      29.379  27.128  18.190  1.00  0.00     0.004 C 
HETATM   19  C   LIG     1      28.082  26.716  18.916  1.00  0.00     0.046 C 
ENDBRANCH   1  13
TORSDOF 2
ENDMDL
MODEL 11
REMARK VINA RESULT:      -5.2     14.189     15.571
REMARK  2 active torsions:
REMARK  status: ('A' for Active; 'I' for Inactive)
REMARK    1  A    between atoms: C_7  and  C_8 
REMARK       I    between atoms: C_8  and  N_9 
REMARK    2  A    between atoms: N_9  and  C_10 
ROOT
HETATM    1  C   LIG     1      26.629  23.008  20.607  1.00  0.00     0.255 C 
HETATM    2  N   LIG     1      25.457  23.441  21.313  1.00  0.00    -0.324 N 
HETATM    3  O   LIG     1      27.023  21.814  20.711  1.00  0.00    -0.271 OA
HETATM    4  H   LIG     1      25.244  24.462  21.354  1.00  0.00     0.169 HD
ENDROOT
BRANCH   2   5
HETATM    5  C   LIG     1      24.674  22.546  22.118  1.00  0.00     0.046 A 
HETATM    6  C   LIG     1      24.984  22.349  23.485  1.00  0.00    -0.035 A 
HETATM    7  C   LIG     1      24.185  21.491  24.256  1.00  0.00     0.009 A 
HETATM    8  C   LIG     1      26.140  23.054  24.141  1.00  0.00     0.050 C 
HETATM    9  C   LIG     1      23.122  20.799  23.675  1.00  0.00     0.001 A 
HETATM   10  C   LIG     1      22.839  20.960  22.319  1.00  0.00     0.009 A 
HETATM   11  C   LIG     1      23.606  21.831  21.531  1.00  0.00    -0.035 A 
HETATM   12  C   LIG     1      23.278  22.001  20.073  1.00  0.00     0.050 C 
ENDBRANCH   2   5
BRANCH   1  13
HETATM   13  C   LIG     1      27.387  23.998  19.752  1.00  0.00     0.314 C 
HETATM   14  N   LIG     1      27.079  23.821  18.313  1.00  0.00     0.098 N 
HETATM   15  C   LIG     1      25.660  24.061  17.981  1.00  0.00     0.310 C 
HETATM   16  C   LIG     1      27.988  24.607  17.433  1.00  0.00     0.273 C 
HETATM   17  C   LIG     1      28.650  25.819  18.126  1.00  0.00     0.030 C 
HETATM   18  C   LIG     1      27.712  26.473  19.142  1.00  0.00     0.004 C 
HETATM   19  C   LIG     1      27.205  25.471  20.199  1.00  0.00     0.046 C 
ENDBRANCH   1  13
TORSDOF 2
ENDMDL
MODEL 12
REMARK VINA RESULT:      -5.1     14.220     15.212
REMARK  2 active torsions:
REMARK  status: ('A' for Active; 'I' for Inactive)
REMARK    1  A    between atoms: C_7  and  C_8 
REMARK       I    between atoms: C_8  and  N_9 
REMARK    2  A    between atoms: N_9  and  C_10 
ROOT
HETATM    1  C   LIG     1      26.307  24.361  18.884  1.00  0.00     0.255 C 
HETATM    2  N   LIG     1      27.736  24.486  18.849  1.00  0.00    -0.324 N 
HETATM    3  O   LIG     1      25.620  24.682  17.876  1.00  0.00    -0.271 OA
HETATM    4  H   LIG     1      28.271  24.382  19.739  1.00  0.00     0.169 HD
ENDROOT
BRANCH   2   5
HETATM    5  C   LIG     1      28.436  24.932  17.678  1.00  0.00     0.046 A 
HETATM    6  C   LIG     1      28.804  24.015  16.664  1.00  0.00    -0.035 A 
HETATM    7  C   LIG     1      29.463  24.483  15.517  1.00  0.00     0.009 A 
HETATM    8  C   LIG     1      28.489  22.548  16.778  1.00  0.00     0.050 C 
HETATM    9  C   LIG     1      29.795  25.832  15.391  1.00  0.00     0.001 A 
HETATM   10  C   LIG     1      29.470  26.731  16.405  1.00  0.00     0.009 A 
HETATM   11  C   LIG     1      28.789  26.295  17.552  1.00  0.00    -0.035 A 
HETATM   12  C   LIG     1      28.436  27.282  18.630  1.00  0.00     0.050 C 
ENDBRANCH   2   5
BRANCH   1  13
HETATM   13  C   LIG     1      25.638  23.855  20.142  1.00  0.00     0.314 C 
HETATM   14  N   LIG     1      24.757  22.696  19.861  1.00  0.00     0.098 N 
HETATM   15  C   LIG     1      25.480  21.522  19.331  1.00  0.00     0.310 C 
HETATM   16  C   LIG     1      23.900  22.333  21.023  1.00  0.00     0.273 C 
HETATM   17  C   LIG     1      24.450  22.806  22.388  1.00  0.00     0.030 C 
HETATM   18  C   LIG     1      25.979  22.746  22.435  1.00  0.00     0.004 C 
HETATM   19  C   LIG     1      26.630  23.552  21.294  1.00  0.00     0.046 C 
ENDBRANCH   1  13
TORSDOF 2
ENDMDL
MODEL 13
REMARK VINA RESULT:      -5.1     16.949     19.319
REMARK  2 active torsions:
REMARK  status: ('A' for Active; 'I' for Inactive)
REMARK    1  A    between atoms: C_7  and  C_8 
REMARK       I    between atoms: C_8  and  N_9 
REMARK    2  A    between atoms: N_9  and  C_10 
ROOT
HETATM    1  C   LIG     1      27.428  25.408  29.384  1.00  0.00     0.255 C 
HETATM    2  N   LIG     1      27.084  26.791  29.551  1.00  0.00    -0.324 N 
HETATM    3  O   LIG     1      28.419  24.925  29.998  1.00  0.00    -0.271 OA
HETATM    4  H   LIG     1      26.375  27.213  28.911  1.00  0.00     0.169 HD
ENDROOT
BRANCH   2   5
HETATM    5  C   LIG     1      27.810  27.658  30.436  1.00  0.00     0.046 A 
HETATM    6  C   LIG     1      28.881  28.448  29.954  1.00  0.00    -0.035 A 
HETATM    7  C   LIG     1      29.554  29.308  30.834  1.00  0.00     0.009 A 
HETATM    8  C   LIG     1      29.305  28.403  28.511  1.00  0.00     0.050 C 
HETATM    9  C   LIG     1      29.205  29.355  32.184  1.00  0.00     0.001 A 
HETATM   10  C   LIG     1      28.177  28.549  32.671  1.00  0.00     0.009 A 
HETATM   11  C   LIG     1      27.471  27.698  31.808  1.00  0.00    -0.035 A 
HETATM   12  C   LIG     1      26.357  26.845  32.349  1.00  0.00     0.050 C 
ENDBRANCH   2   5
BRANCH   1  13
HETATM   13  C   LIG     1      26.600  24.545  28.458  1.00  0.00     0.314 C 
HETATM   14  N   LIG     1      26.850  24.878  27.036  1.00  0.00     0.098 N 
HETATM   15  C   LIG     1      28.246  24.639  26.612  1.00  0.00     0.310 C 
HETATM   16  C   LIG     1      25.879  24.226  26.116  1.00  0.00     0.273 C 
HETATM   17  C   LIG     1      25.207  22.961  26.697  1.00  0.00     0.030 C 
HETATM   18  C   LIG     1      26.167  22.167  27.586  1.00  0.00     0.004 C 
HETATM   19  C   LIG     1      26.753  23.026  28.725  1.00  0.00     0.046 C 
ENDBRANCH   1  13
TORSDOF 2
ENDMDL
MODEL 14
REMARK VINA RESULT:      -5.1     16.977     19.444
REMARK  2 active torsions:
REMARK  status: ('A' for Active; 'I' for Inactive)
REMARK    1  A    between atoms: C_7  and  C_8 
REMARK       I    between atoms: C_8  and  N_9 
REMARK    2  A    between atoms: N_9  and  C_10 
ROOT
HETATM    1  C   LIG     1      27.435  25.398  29.438  1.00  0.00     0.255 C 
HETATM    2  N   LIG     1      27.108  26.786  29.588  1.00  0.00    -0.324 N 
HETATM    3  O   LIG     1      28.402  24.904  30.080  1.00  0.00    -0.271 OA
HETATM    4  H   LIG     1      26.422  27.215  28.928  1.00  0.00     0.169 HD
ENDROOT
BRANCH   2   5
HETATM    5  C   LIG     1      27.822  27.648  30.487  1.00  0.00     0.046 A 
HETATM    6  C   LIG     1      27.461  27.722  31.854  1.00  0.00    -0.035 A 
HETATM    7  C   LIG     1      28.195  28.551  32.717  1.00  0.00     0.009 A 
HETATM    8  C   LIG     1      26.319  26.918  32.412  1.00  0.00     0.050 C 
HETATM    9  C   LIG     1      29.243  29.332  32.228  1.00  0.00     0.001 A 
HETATM   10  C   LIG     1      29.576  29.291  30.875  1.00  0.00     0.009 A 
HETATM   11  C   LIG     1      28.875  28.452  29.995  1.00  0.00    -0.035 A 
HETATM   12  C   LIG     1      29.255  28.413  28.541  1.00  0.00     0.050 C 
ENDBRANCH   2   5
BRANCH   1  13
HETATM   13  C   LIG     1      26.620  24.542  28.495  1.00  0.00     0.314 C 
HETATM   14  N   LIG     1      26.872  24.900  27.079  1.00  0.00     0.098 N 
HETATM   15  C   LIG     1      28.271  24.680  26.657  1.00  0.00     0.310 C 
HETATM   16  C   LIG     1      25.911  24.253  26.144  1.00  0.00     0.273 C 
HETATM   17  C   LIG     1      25.249  22.972  26.703  1.00  0.00     0.030 C 
HETATM   18  C   LIG     1      26.212  22.174  27.583  1.00  0.00     0.004 C 
HETATM   19  C   LIG     1      26.785  23.020  28.738  1.00  0.00     0.046 C 
ENDBRANCH   1  13
TORSDOF 2
ENDMDL
MODEL 15
REMARK VINA RESULT:      -4.9     14.350     15.339
REMARK  2 active torsions:
REMARK  status: ('A' for Active; 'I' for Inactive)
REMARK    1  A    between atoms: C_7  and  C_8 
REMARK       I    between atoms: C_8  and  N_9 
REMARK    2  A    between atoms: N_9  and  C_10 
ROOT
HETATM    1  C   LIG     1      26.372  23.513  19.908  1.00  0.00     0.255 C 
HETATM    2  N   LIG     1      26.542  24.002  18.570  1.00  0.00    -0.324 N 
HETATM    3  O   LIG     1      27.381  23.314  20.640  1.00  0.00    -0.271 OA
HETATM    4  H   LIG     1      25.720  23.998  17.926  1.00  0.00     0.169 HD
ENDROOT
BRANCH   2   5
HETATM    5  C   LIG     1      27.833  24.318  18.028  1.00  0.00     0.046 A 
HETATM    6  C   LIG     1      28.381  25.615  18.181  1.00  0.00    -0.035 A 
HETATM    7  C   LIG     1      29.657  25.889  17.667  1.00  0.00     0.009 A 
HETATM    8  C   LIG     1      27.634  26.706  18.899  1.00  0.00     0.050 C 
HETATM    9  C   LIG     1      30.366  24.909  16.971  1.00  0.00     0.001 A 
HETATM   10  C   LIG     1      29.813  23.643  16.784  1.00  0.00     0.009 A 
HETATM   11  C   LIG     1      28.549  23.335  17.310  1.00  0.00    -0.035 A 
HETATM   12  C   LIG     1      27.974  21.960  17.108  1.00  0.00     0.050 C 
ENDBRANCH   2   5
BRANCH   1  13
HETATM   13  C   LIG     1      24.979  23.230  20.423  1.00  0.00     0.314 C 
HETATM   14  N   LIG     1      24.287  22.216  19.591  1.00  0.00     0.098 N 
HETATM   15  C   LIG     1      24.955  20.898  19.594  1.00  0.00     0.310 C 
HETATM   16  C   LIG     1      22.840  22.098  19.919  1.00  0.00     0.273 C 
HETATM   17  C   LIG     1      22.471  22.581  21.340  1.00  0.00     0.030 C 
HETATM   18  C   LIG     1      23.577  22.270  22.350  1.00  0.00     0.004 C 
HETATM   19  C   LIG     1      24.937  22.860  21.928  1.00  0.00     0.046 C 
ENDBRANCH   1  13
TORSDOF 2
ENDMDL
MODEL 16
REMARK VINA RESULT:      -4.9     14.641     15.515
REMARK  2 active torsions:
REMARK  status: ('A' for Active; 'I' for Inactive)
REMARK    1  A    between atoms: C_7  and  C_8 
REMARK       I    between atoms: C_8  and  N_9 
REMARK    2  A    between atoms: N_9  and  C_10 
ROOT
HETATM    1  C   LIG     1      25.187  23.062  20.199  1.00  0.00     0.255 C 
HETATM    2  N   LIG     1      25.346  21.804  19.527  1.00  0.00    -0.324 N 
HETATM    3  O   LIG     1      24.349  23.176  21.134  1.00  0.00    -0.271 OA
HETATM    4  H   LIG     1      25.913  21.771  18.650  1.00  0.00     0.169 HD
ENDROOT
BRANCH   2   5
HETATM    5  C   LIG     1      24.604  20.635  19.906  1.00  0.00     0.046 A 
HETATM    6  C   LIG     1      25.086  19.773  20.920  1.00  0.00    -0.035 A 
HETATM    7  C   LIG     1      24.327  18.653  21.291  1.00  0.00     0.009 A 
HETATM    8  C   LIG     1      26.388  20.038  21.626  1.00  0.00     0.050 C 
HETATM    9  C   LIG     1      23.129  18.361  20.638  1.00  0.00     0.001 A 
HETATM   10  C   LIG     1      22.671  19.186  19.612  1.00  0.00     0.009 A 
HETATM   11  C   LIG     1      23.398  20.327  19.238  1.00  0.00    -0.035 A 
HETATM   12  C   LIG     1      22.882  21.211  18.136  1.00  0.00     0.050 C 
ENDBRANCH   2   5
BRANCH   1  13
HETATM   13  C   LIG     1      26.025  24.244  19.766  1.00  0.00     0.314 C 
HETATM   14  N   LIG     1      27.072  24.564  20.766  1.00  0.00     0.098 N 
HETATM   15  C   LIG     1      28.050  23.474  20.964  1.00  0.00     0.310 C 
HETATM   16  C   LIG     1      27.747  25.862  20.492  1.00  0.00     0.273 C 
HETATM   17  C   LIG     1      27.659  26.325  19.020  1.00  0.00     0.030 C 
HETATM   18  C   LIG     1      27.714  25.142  18.051  1.00  0.00     0.004 C 
HETATM   19  C   LIG     1      26.620  24.095  18.343  1.00  0.00     0.046 C 
ENDBRANCH   1  13
TORSDOF 2
ENDMDL
MODEL 17
REMARK VINA RESULT:      -4.9     14.639     15.530
REMARK  2 active torsions:
REMARK  status: ('A' for Active; 'I' for Inactive)
REMARK    1  A    between atoms: C_7  and  C_8 
REMARK       I    between atoms: C_8  and  N_9 
REMARK    2  A    between atoms: N_9  and  C_10 
ROOT
HETATM    1  C   LIG     1      25.231  23.099  20.146  1.00  0.00     0.255 C 
HETATM    2  N   LIG     1      25.402  21.838  19.484  1.00  0.00    -0.324 N 
HETATM    3  O   LIG     1      24.375  23.219  21.065  1.00  0.00    -0.271 OA
HETATM    4  H   LIG     1      25.987  21.800  18.620  1.00  0.00     0.169 HD
ENDROOT
BRANCH   2   5
HETATM    5  C   LIG     1      24.653  20.671  19.856  1.00  0.00     0.046 A 
HETATM    6  C   LIG     1      23.420  20.375  19.226  1.00  0.00    -0.035 A 
HETATM    7  C   LIG     1      22.723  19.213  19.588  1.00  0.00     0.009 A 
HETATM    8  C   LIG     1      22.845  21.269  18.161  1.00  0.00     0.050 C 
HETATM    9  C   LIG     1      23.212  18.376  20.592  1.00  0.00     0.001 A 
HETATM   10  C   LIG     1      24.406  18.685  21.241  1.00  0.00     0.009 A 
HETATM   11  C   LIG     1      25.137  19.828  20.882  1.00  0.00    -0.035 A 
HETATM   12  C   LIG     1      26.429  20.139  21.586  1.00  0.00     0.050 C 
ENDBRANCH   2   5
BRANCH   1  13
HETATM   13  C   LIG     1      26.077  24.279  19.723  1.00  0.00     0.314 C 
HETATM   14  N   LIG     1      27.100  24.609  20.745  1.00  0.00     0.098 N 
HETATM   15  C   LIG     1      28.074  23.522  20.974  1.00  0.00     0.310 C 
HETATM   16  C   LIG     1      27.779  25.906  20.476  1.00  0.00     0.273 C 
HETATM   17  C   LIG     1      27.725  26.356  18.998  1.00  0.00     0.030 C 
HETATM   18  C   LIG     1      27.805  25.165  18.040  1.00  0.00     0.004 C 
HETATM   19  C   LIG     1      26.706  24.120  18.316  1.00  0.00     0.046 C 
ENDBRANCH   1  13
TORSDOF 2
ENDMDL
MODEL 18
REMARK VINA RESULT:      -4.8     14.620     15.749
REMARK  2 active torsions:
REMARK  status: ('A' for Active; 'I' for Inactive)
REMARK    1  A    between atoms: C_7  and  C_8 
REMARK       I    between atoms: C_8  and  N_9 
REMARK    2  A    between atoms: N_9  and  C_10 
ROOT
HETATM    1  C   LIG     1      24.635  22.114  21.712  1.00  0.00     0.255 C 
HETATM    2  N   LIG     1      25.867  22.207  20.982  1.00  0.00    -0.324 N 
HETATM    3  O   LIG     1      23.894  23.128  21.831  1.00  0.00    -0.271 OA
HETATM    4  H   LIG     1      26.545  21.415  21.038  1.00  0.00     0.169 HD
ENDROOT
BRANCH   2   5
HETATM    5  C   LIG     1      26.283  23.419  20.335  1.00  0.00     0.046 A 
HETATM    6  C   LIG     1      27.127  24.339  21.001  1.00  0.00    -0.035 A 
HETATM    7  C   LIG     1      27.542  25.502  20.334  1.00  0.00     0.009 A 
HETATM    8  C   LIG     1      27.610  24.093  22.405  1.00  0.00     0.050 C 
HETATM    9  C   LIG     1      27.092  25.777  19.042  1.00  0.00     0.001 A 
HETATM   10  C   LIG     1      26.228  24.892  18.398  1.00  0.00     0.009 A 
HETATM   11  C   LIG     1      25.818  23.710  19.032  1.00  0.00    -0.035 A 
HETATM   12  C   LIG     1      24.895  22.762  18.317  1.00  0.00     0.050 C 
ENDBRANCH   2   5
BRANCH   1  13
HETATM   13  C   LIG     1      24.245  20.796  22.343  1.00  0.00     0.314 C 
HETATM   14  N   LIG     1      25.095  20.483  23.517  1.00  0.00     0.098 N 
HETATM   15  C   LIG     1      24.969  21.467  24.613  1.00  0.00     0.310 C 
HETATM   16  C   LIG     1      24.903  19.090  24.007  1.00  0.00     0.273 C 
HETATM   17  C   LIG     1      23.547  18.461  23.613  1.00  0.00     0.030 C 
HETATM   18  C   LIG     1      22.422  19.498  23.605  1.00  0.00     0.004 C 
HETATM   19  C   LIG     1      22.737  20.694  22.685  1.00  0.00     0.046 C 
ENDBRANCH   1  13
TORSDOF 2
ENDMDL
MODEL 19
REMARK VINA RESULT:      -4.8     14.580     15.732
REMARK  2 active torsions:
REMARK  status: ('A' for Active; 'I' for Inactive)
REMARK    1  A    between atoms: C_7  and  C_8 
REMARK       I    between atoms: C_8  and  N_9 
REMARK    2  A    between atoms: N_9  and  C_10 
ROOT
HETATM    1  C   LIG     1      26.536  22.820  20.831  1.00  0.00     0.255 C 
HETATM    2  N   LIG     1      26.574  24.233  20.588  1.00  0.00    -0.324 N 
HETATM    3  O   LIG     1      27.577  22.124  20.676  1.00  0.00    -0.271 OA
HETATM    4  H   LIG     1      25.674  24.761  20.554  1.00  0.00     0.169 HD
ENDROOT
BRANCH   2   5
HETATM    5  C   LIG     1      27.780  24.912  20.205  1.00  0.00     0.046 A 
HETATM    6  C   LIG     1      28.118  25.067  18.839  1.00  0.00    -0.035 A 
HETATM    7  C   LIG     1      29.288  25.759  18.493  1.00  0.00     0.009 A 
HETATM    8  C   LIG     1      27.241  24.522  17.744  1.00  0.00     0.050 C 
HETATM    9  C   LIG     1      30.138  26.253  19.482  1.00  0.00     0.001 A 
HETATM   10  C   LIG     1      29.829  26.067  20.829  1.00  0.00     0.009 A 
HETATM   11  C   LIG     1      28.653  25.400  21.204  1.00  0.00    -0.035 A 
HETATM   12  C   LIG     1      28.330  25.220  22.661  1.00  0.00     0.050 C 
ENDBRANCH   2   5
BRANCH   1  13
HETATM   13  C   LIG     1      25.237  22.176  21.262  1.00  0.00     0.314 C 
HETATM   14  N   LIG     1      25.311  21.683  22.658  1.00  0.00     0.098 N 
HETATM   15  C   LIG     1      25.536  22.756  23.649  1.00  0.00     0.310 C 
HETATM   16  C   LIG     1      24.147  20.832  23.027  1.00  0.00     0.273 C 
HETATM   17  C   LIG     1      22.887  21.073  22.164  1.00  0.00     0.030 C 
HETATM   18  C   LIG     1      22.745  22.543  21.766  1.00  0.00     0.004 C 
HETATM   19  C   LIG     1      23.995  23.075  21.037  1.00  0.00     0.046 C 
ENDBRANCH   1  13
TORSDOF 2
ENDMDL
MODEL 20
REMARK VINA RESULT:      -4.8     14.310     15.487
REMARK  2 active torsions:
REMARK  status: ('A' for Active; 'I' for Inactive)
REMARK    1  A    between atoms: C_7  and  C_8 
REMARK       I    between atoms: C_8  and  N_9 
REMARK    2  A    between atoms: N_9  and  C_10 
ROOT
HETATM    1  C   LIG     1      26.230  22.887  20.939  1.00  0.00     0.255 C 
HETATM    2  N   LIG     1      26.254  24.308  20.746  1.00  0.00    -0.324 N 
HETATM    3  O   LIG     1      27.196  22.179  20.543  1.00  0.00    -0.271 OA
HETATM    4  H   LIG     1      25.381  24.854  20.921  1.00  0.00     0.169 HD
ENDROOT
BRANCH   2   5
HETATM    5  C   LIG     1      27.372  24.980  20.145  1.00  0.00     0.046 A 
HETATM    6  C   LIG     1      28.429  25.476  20.945  1.00  0.00    -0.035 A 
HETATM    7  C   LIG     1      29.523  26.103  20.329  1.00  0.00     0.009 A 
HETATM    8  C   LIG     1      28.419  25.332  22.443  1.00  0.00     0.050 C 
HETATM    9  C   LIG     1      29.552  26.279  18.945  1.00  0.00     0.001 A 
HETATM   10  C   LIG     1      28.494  25.827  18.159  1.00  0.00     0.009 A 
HETATM   11  C   LIG     1      27.399  25.174  18.746  1.00  0.00    -0.035 A 
HETATM   12  C   LIG     1      26.273  24.683  17.880  1.00  0.00     0.050 C 
ENDBRANCH   2   5
BRANCH   1  13
HETATM   13  C   LIG     1      25.032  22.250  21.607  1.00  0.00     0.314 C 
HETATM   14  N   LIG     1      23.774  22.571  20.891  1.00  0.00     0.098 N 
HETATM   15  C   LIG     1      23.738  22.057  19.506  1.00  0.00     0.310 C 
HETATM   16  C   LIG     1      22.562  22.170  21.655  1.00  0.00     0.273 C 
HETATM   17  C   LIG     1      22.810  21.056  22.698  1.00  0.00     0.030 C 
HETATM   18  C   LIG     1      23.854  20.048  22.213  1.00  0.00     0.004 C 
HETATM   19  C   LIG     1      25.187  20.724  21.834  1.00  0.00     0.046 C 
ENDBRANCH   1  13
TORSDOF 2
ENDMDL
