REMARK  2 active torsions:
REMARK  status: ('A' for Active; 'I' for Inactive)
REMARK    1  A    between atoms: C_7  and  C_8 
REMARK       I    between atoms: C_8  and  N_9 
REMARK    2  A    between atoms: N_9  and  C_10 
ROOT
HETATM    1  C   LIG     1       0.174  -0.142  -0.580  1.00  0.00     0.255 C 
HETATM    2  N   LIG     1      -0.941   0.520   0.034  1.00  0.00    -0.324 N 
HETATM    3  O   LIG     1      -0.020  -1.120  -1.353  1.00  0.00    -0.271 OA
HETATM    4  H   LIG     1      -0.758   1.209   0.797  1.00  0.00     0.169 HD
ENDROOT
BRANCH   2   5
HETATM    5  C   LIG     1      -2.299   0.135  -0.229  1.00  0.00     0.046 A 
HETATM    6  C   LIG     1      -2.874   0.347  -1.505  1.00  0.00    -0.035 A 
HETATM    7  C   LIG     1      -4.194  -0.065  -1.743  1.00  0.00     0.009 A 
HETATM    8  C   LIG     1      -2.097   0.988  -2.623  1.00  0.00     0.050 C 
HETATM    9  C   LIG     1      -4.953  -0.637  -0.722  1.00  0.00     0.001 A 
HETATM   10  C   LIG     1      -4.403  -0.811   0.547  1.00  0.00     0.009 A 
HETATM   11  C   LIG     1      -3.077  -0.431   0.806  1.00  0.00    -0.035 A 
HETATM   12  C   LIG     1      -2.497  -0.637   2.178  1.00  0.00     0.050 C 
ENDBRANCH   2   5
BRANCH   1  13
HETATM   13  C   LIG     1       1.577   0.337  -0.281  1.00  0.00     0.314 C 
HETATM   14  N   LIG     1       1.875   0.275   1.170  1.00  0.00     0.098 N 
HETATM   15  C   LIG     1       1.829  -1.095   1.722  1.00  0.00     0.310 C 
HETATM   16  C   LIG     1       3.146   0.965   1.523  1.00  0.00     0.273 C 
HETATM   17  C   LIG     1       4.141   1.101   0.348  1.00  0.00     0.030 C 
HETATM   18  C   LIG     1       4.089  -0.113  -0.582  1.00  0.00     0.004 C 
HETATM   19  C   LIG     1       2.668  -0.376  -1.120  1.00  0.00     0.046 C 
ENDBRANCH   1  13
TORSDOF 2
