REMARK  4 active torsions:
REMARK  status: ('A' for Active; 'I' for Inactive)
REMARK    1  A    between atoms: O_1  and  C_2 
REMARK    2  A    between atoms: C_3  and  C_9 
REMARK    3  A    between atoms: C_9  and  C_10 
REMARK    4  A    between atoms: C_16  and  O_17 
ROOT
HETATM    1  C   LIG     1      -0.056   1.338   0.352  1.00  0.00     0.083 C 
ENDROOT
BRANCH   1   2
HETATM    2  C   LIG     1      -1.269   0.504  -0.028  1.00  0.00    -0.019 A 
HETATM    3  C   LIG     1      -2.510   0.658   0.645  1.00  0.00     0.072 A 
HETATM    4  C   LIG     1      -3.599  -0.147   0.290  1.00  0.00     0.039 A 
HETATM    5  C   LIG     1      -3.496  -1.063  -0.756  1.00  0.00     0.026 A 
HETATM    6  C   LIG     1      -2.303  -1.176  -1.469  1.00  0.00     0.034 A 
HETATM    7  C   LIG     1      -1.201  -0.391  -1.118  1.00  0.00     0.034 A 
HETATM    8 CL   LIG     1      -2.185  -2.304  -2.808  1.00  0.00    -0.084 Cl
BRANCH   3   9
HETATM    9  O   LIG     1      -2.709   1.606   1.652  1.00  0.00    -0.360 OA
HETATM   10  H   LIG     1      -2.038   2.323   1.891  1.00  0.00     0.217 HD
ENDBRANCH   3   9
ENDBRANCH   1   2
BRANCH   1  11
HETATM   11  C   LIG     1       1.258   0.636   0.091  1.00  0.00    -0.019 A 
HETATM   12  C   LIG     1       2.125   1.114  -0.907  1.00  0.00     0.034 A 
HETATM   13  C   LIG     1       3.338   0.465  -1.161  1.00  0.00     0.034 A 
HETATM   14  C   LIG     1       3.696  -0.663  -0.418  1.00  0.00     0.026 A 
HETATM   15 CL   LIG     1       4.410   1.067  -2.413  1.00  0.00    -0.084 Cl
HETATM   16  C   LIG     1       2.844  -1.145   0.578  1.00  0.00     0.039 A 
HETATM   17  C   LIG     1       1.626  -0.501   0.839  1.00  0.00     0.072 A 
BRANCH  17  18
HETATM   18  O   LIG     1       0.780  -0.987   1.835  1.00  0.00    -0.360 OA
HETATM   19  H   LIG     1       1.020  -1.804   2.385  1.00  0.00     0.217 HD
ENDBRANCH  17  18
ENDBRANCH   1  11
TORSDOF 4
