MODEL 1
REMARK VINA RESULT:      -7.6      0.000      0.000
REMARK  4 active torsions:
REMARK  status: ('A' for Active; 'I' for Inactive)
REMARK    1  A    between atoms: O_1  and  C_2 
REMARK    2  A    between atoms: C_3  and  C_9 
REMARK    3  A    between atoms: C_9  and  C_10 
REMARK    4  A    between atoms: C_16  and  O_17 
ROOT
HETATM    1  C   LIG     1      16.129  36.677  22.422  1.00  0.00     0.083 C 
ENDROOT
BRANCH   1   2
HETATM    2  C   LIG     1      17.078  36.829  21.244  1.00  0.00    -0.019 A 
HETATM    3  C   LIG     1      17.007  35.961  20.122  1.00  0.00     0.072 A 
HETATM    4  C   LIG     1      17.915  36.110  19.068  1.00  0.00     0.039 A 
HETATM    5  C   LIG     1      18.858  37.137  19.080  1.00  0.00     0.026 A 
HETATM    6  C   LIG     1      18.894  38.038  20.144  1.00  0.00     0.034 A 
HETATM    7  C   LIG     1      18.004  37.895  21.213  1.00  0.00     0.034 A 
HETATM    8 CL   LIG     1      20.057  39.352  20.142  1.00  0.00    -0.084 Cl
BRANCH   3   9
HETATM    9  O   LIG     1      16.042  34.957  20.007  1.00  0.00    -0.360 OA
HETATM   10  H   LIG     1      15.247  34.866  20.624  1.00  0.00     0.217 HD
ENDBRANCH   3   9
ENDBRANCH   1   2
BRANCH   1  11
HETATM   11  C   LIG     1      16.808  36.842  23.763  1.00  0.00    -0.019 A 
HETATM   12  C   LIG     1      17.318  35.718  24.437  1.00  0.00     0.034 A 
HETATM   13  C   LIG     1      17.940  35.861  25.682  1.00  0.00     0.034 A 
HETATM   14  C   LIG     1      18.061  37.127  26.261  1.00  0.00     0.026 A 
HETATM   15 CL   LIG     1      18.567  34.451  26.516  1.00  0.00    -0.084 Cl
HETATM   16  C   LIG     1      17.561  38.251  25.600  1.00  0.00     0.039 A 
HETATM   17  C   LIG     1      16.936  38.117  24.352  1.00  0.00     0.072 A 
BRANCH  17  18
HETATM   18  O   LIG     1      16.440  39.243  23.696  1.00  0.00    -0.360 OA
HETATM   19  H   LIG     1      17.023  40.050  23.509  1.00  0.00     0.217 HD
ENDBRANCH  17  18
ENDBRANCH   1  11
TORSDOF 4
ENDMDL
MODEL 2
REMARK VINA RESULT:      -7.5      0.094      5.732
REMARK  4 active torsions:
REMARK  status: ('A' for Active; 'I' for Inactive)
REMARK    1  A    between atoms: O_1  and  C_2 
REMARK    2  A    between atoms: C_3  and  C_9 
REMARK    3  A    between atoms: C_9  and  C_10 
REMARK    4  A    between atoms: C_16  and  O_17 
ROOT
HETATM    1  C   LIG     1      16.168  36.520  22.410  1.00  0.00     0.083 C 
ENDROOT
BRANCH   1   2
HETATM    2  C   LIG     1      16.844  36.740  23.753  1.00  0.00    -0.019 A 
HETATM    3  C   LIG     1      16.922  38.033  24.337  1.00  0.00     0.072 A 
HETATM    4  C   LIG     1      17.577  38.205  25.562  1.00  0.00     0.039 A 
HETATM    5  C   LIG     1      18.109  37.112  26.245  1.00  0.00     0.026 A 
HETATM    6  C   LIG     1      17.979  35.829  25.715  1.00  0.00     0.034 A 
HETATM    7  C   LIG     1      17.341  35.640  24.486  1.00  0.00     0.034 A 
HETATM    8 CL   LIG     1      18.617  34.450  26.592  1.00  0.00    -0.084 Cl
BRANCH   3   9
HETATM    9  O   LIG     1      16.348  39.162  23.747  1.00  0.00    -0.360 OA
HETATM   10  H   LIG     1      15.878  39.891  24.265  1.00  0.00     0.217 HD
ENDBRANCH   3   9
ENDBRANCH   1   2
BRANCH   1  11
HETATM   11  C   LIG     1      17.091  36.743  21.232  1.00  0.00    -0.019 A 
HETATM   12  C   LIG     1      18.024  37.794  21.259  1.00  0.00     0.034 A 
HETATM   13  C   LIG     1      18.875  38.013  20.170  1.00  0.00     0.034 A 
HETATM   14  C   LIG     1      18.803  37.182  19.049  1.00  0.00     0.026 A 
HETATM   15 CL   LIG     1      20.032  39.331  20.212  1.00  0.00    -0.084 Cl
HETATM   16  C   LIG     1      17.882  36.133  19.013  1.00  0.00     0.039 A 
HETATM   17  C   LIG     1      17.025  35.906  20.099  1.00  0.00     0.072 A 
BRANCH  17  18
HETATM   18  O   LIG     1      16.108  34.857  20.057  1.00  0.00    -0.360 OA
HETATM   19  H   LIG     1      15.115  35.023  19.935  1.00  0.00     0.217 HD
ENDBRANCH  17  18
ENDBRANCH   1  11
TORSDOF 4
ENDMDL
MODEL 3
REMARK VINA RESULT:      -6.4      8.859     11.362
REMARK  4 active torsions:
REMARK  status: ('A' for Active; 'I' for Inactive)
REMARK    1  A    between atoms: O_1  and  C_2 
REMARK    2  A    between atoms: C_3  and  C_9 
REMARK    3  A    between atoms: C_9  and  C_10 
REMARK    4  A    between atoms: C_16  and  O_17 
ROOT
HETATM    1  C   LIG     1      17.886  34.252  14.283  1.00  0.00     0.083 C 
ENDROOT
BRANCH   1   2
HETATM    2  C   LIG     1      16.824  33.230  14.657  1.00  0.00    -0.019 A 
HETATM    3  C   LIG     1      15.962  33.435  15.767  1.00  0.00     0.072 A 
HETATM    4  C   LIG     1      15.015  32.459  16.102  1.00  0.00     0.039 A 
HETATM    5  C   LIG     1      14.871  31.311  15.325  1.00  0.00     0.026 A 
HETATM    6  C   LIG     1      15.666  31.129  14.194  1.00  0.00     0.034 A 
HETATM    7  C   LIG     1      16.627  32.086  13.853  1.00  0.00     0.034 A 
HETATM    8 CL   LIG     1      15.461  29.700  13.197  1.00  0.00    -0.084 Cl
BRANCH   3   9
HETATM    9  O   LIG     1      15.998  34.594  16.546  1.00  0.00    -0.360 OA
HETATM   10  H   LIG     1      15.173  35.083  16.866  1.00  0.00     0.217 HD
ENDBRANCH   3   9
ENDBRANCH   1   2
BRANCH   1  11
HETATM   11  C   LIG     1      18.350  34.134  12.848  1.00  0.00    -0.019 A 
HETATM   12  C   LIG     1      19.318  33.176  12.499  1.00  0.00     0.034 A 
HETATM   13  C   LIG     1      19.760  33.066  11.176  1.00  0.00     0.034 A 
HETATM   14  C   LIG     1      19.237  33.909  10.192  1.00  0.00     0.026 A 
HETATM   15 CL   LIG     1      20.972  31.870  10.753  1.00  0.00    -0.084 Cl
HETATM   16  C   LIG     1      18.273  34.863  10.527  1.00  0.00     0.039 A 
HETATM   17  C   LIG     1      17.824  34.980  11.851  1.00  0.00     0.072 A 
BRANCH  17  18
HETATM   18  O   LIG     1      16.861  35.933  12.179  1.00  0.00    -0.360 OA
HETATM   19  H   LIG     1      17.115  36.831  12.575  1.00  0.00     0.217 HD
ENDBRANCH  17  18
ENDBRANCH   1  11
TORSDOF 4
ENDMDL
MODEL 4
REMARK VINA RESULT:      -6.4      8.752     10.333
REMARK  4 active torsions:
REMARK  status: ('A' for Active; 'I' for Inactive)
REMARK    1  A    between atoms: O_1  and  C_2 
REMARK    2  A    between atoms: C_3  and  C_9 
REMARK    3  A    between atoms: C_9  and  C_10 
REMARK    4  A    between atoms: C_16  and  O_17 
ROOT
HETATM    1  C   LIG     1      17.833  34.272  14.425  1.00  0.00     0.083 C 
ENDROOT
BRANCH   1   2
HETATM    2  C   LIG     1      18.315  34.178  12.986  1.00  0.00    -0.019 A 
HETATM    3  C   LIG     1      17.778  35.015  11.972  1.00  0.00     0.072 A 
HETATM    4  C   LIG     1      18.223  34.882  10.652  1.00  0.00     0.039 A 
HETATM    5  C   LIG     1      19.229  33.972  10.328  1.00  0.00     0.026 A 
HETATM    6  C   LIG     1      19.812  33.192  11.326  1.00  0.00     0.034 A 
HETATM    7  C   LIG     1      19.369  33.301  12.647  1.00  0.00     0.034 A 
HETATM    8 CL   LIG     1      21.102  32.073  10.924  1.00  0.00    -0.084 Cl
BRANCH   3   9
HETATM    9  O   LIG     1      16.822  35.999  12.235  1.00  0.00    -0.360 OA
HETATM   10  H   LIG     1      15.843  35.911  11.997  1.00  0.00     0.217 HD
ENDBRANCH   3   9
ENDBRANCH   1   2
BRANCH   1  11
HETATM   11  C   LIG     1      16.777  33.246  14.771  1.00  0.00    -0.019 A 
HETATM   12  C   LIG     1      16.616  32.104  13.966  1.00  0.00     0.034 A 
HETATM   13  C   LIG     1      15.636  31.154  14.274  1.00  0.00     0.034 A 
HETATM   14  C   LIG     1      14.813  31.336  15.388  1.00  0.00     0.026 A 
HETATM   15 CL   LIG     1      15.440  29.736  13.260  1.00  0.00    -0.084 Cl
HETATM   16  C   LIG     1      14.966  32.464  16.196  1.00  0.00     0.039 A 
HETATM   17  C   LIG     1      15.945  33.421  15.895  1.00  0.00     0.072 A 
BRANCH  17  18
HETATM   18  O   LIG     1      16.093  34.546  16.706  1.00  0.00    -0.360 OA
HETATM   19  H   LIG     1      15.440  35.320  16.667  1.00  0.00     0.217 HD
ENDBRANCH  17  18
ENDBRANCH   1  11
TORSDOF 4
ENDMDL
MODEL 5
REMARK VINA RESULT:      -6.2      7.312     10.241
REMARK  4 active torsions:
REMARK  status: ('A' for Active; 'I' for Inactive)
REMARK    1  A    between atoms: O_1  and  C_2 
REMARK    2  A    between atoms: C_3  and  C_9 
REMARK    3  A    between atoms: C_9  and  C_10 
REMARK    4  A    between atoms: C_16  and  O_17 
ROOT
HETATM    1  C   LIG     1      13.366  32.168  16.187  1.00  0.00     0.083 C 
ENDROOT
BRANCH   1   2
HETATM    2  C   LIG     1      14.148  32.410  17.467  1.00  0.00    -0.019 A 
HETATM    3  C   LIG     1      14.796  33.650  17.713  1.00  0.00     0.072 A 
HETATM    4  C   LIG     1      15.533  33.830  18.890  1.00  0.00     0.039 A 
HETATM    5  C   LIG     1      15.594  32.822  19.852  1.00  0.00     0.026 A 
HETATM    6  C   LIG     1      14.907  31.625  19.653  1.00  0.00     0.034 A 
HETATM    7  C   LIG     1      14.179  31.423  18.477  1.00  0.00     0.034 A 
HETATM    8 CL   LIG     1      14.956  30.372  20.880  1.00  0.00    -0.084 Cl
BRANCH   3   9
HETATM    9  O   LIG     1      14.717  34.730  16.830  1.00  0.00    -0.360 OA
HETATM   10  H   LIG     1      14.180  34.718  15.973  1.00  0.00     0.217 HD
ENDBRANCH   3   9
ENDBRANCH   1   2
BRANCH   1  11
HETATM   11  C   LIG     1      14.022  31.164  15.266  1.00  0.00    -0.019 A 
HETATM   12  C   LIG     1      13.416  29.916  15.039  1.00  0.00     0.034 A 
HETATM   13  C   LIG     1      14.022  28.978  14.196  1.00  0.00     0.034 A 
HETATM   14  C   LIG     1      15.234  29.280  13.570  1.00  0.00     0.026 A 
HETATM   15 CL   LIG     1      13.259  27.421  13.925  1.00  0.00    -0.084 Cl
HETATM   16  C   LIG     1      15.843  30.518  13.785  1.00  0.00     0.039 A 
HETATM   17  C   LIG     1      15.244  31.464  14.629  1.00  0.00     0.072 A 
BRANCH  17  18
HETATM   18  O   LIG     1      15.858  32.698  14.840  1.00  0.00    -0.360 OA
HETATM   19  H   LIG     1      16.811  32.876  14.545  1.00  0.00     0.217 HD
ENDBRANCH  17  18
ENDBRANCH   1  11
TORSDOF 4
ENDMDL
MODEL 6
REMARK VINA RESULT:      -6.2      7.256      9.084
REMARK  4 active torsions:
REMARK  status: ('A' for Active; 'I' for Inactive)
REMARK    1  A    between atoms: O_1  and  C_2 
REMARK    2  A    between atoms: C_3  and  C_9 
REMARK    3  A    between atoms: C_9  and  C_10 
REMARK    4  A    between atoms: C_16  and  O_17 
ROOT
HETATM    1  C   LIG     1      13.397  32.258  16.206  1.00  0.00     0.083 C 
ENDROOT
BRANCH   1   2
HETATM    2  C   LIG     1      14.054  31.263  15.262  1.00  0.00    -0.019 A 
HETATM    3  C   LIG     1      15.279  31.563  14.611  1.00  0.00     0.072 A 
HETATM    4  C   LIG     1      15.842  30.636  13.725  1.00  0.00     0.039 A 
HETATM    5  C   LIG     1      15.240  29.396  13.515  1.00  0.00     0.026 A 
HETATM    6  C   LIG     1      14.072  29.063  14.201  1.00  0.00     0.034 A 
HETATM    7  C   LIG     1      13.489  29.982  15.077  1.00  0.00     0.034 A 
HETATM    8 CL   LIG     1      13.335  27.488  13.964  1.00  0.00    -0.084 Cl
BRANCH   3   9
HETATM    9  O   LIG     1      15.977  32.754  14.828  1.00  0.00    -0.360 OA
HETATM   10  H   LIG     1      16.222  33.104  15.744  1.00  0.00     0.217 HD
ENDBRANCH   3   9
ENDBRANCH   1   2
BRANCH   1  11
HETATM   11  C   LIG     1      14.175  32.471  17.486  1.00  0.00    -0.019 A 
HETATM   12  C   LIG     1      14.199  31.468  18.470  1.00  0.00     0.034 A 
HETATM   13  C   LIG     1      14.908  31.661  19.660  1.00  0.00     0.034 A 
HETATM   14  C   LIG     1      15.601  32.855  19.875  1.00  0.00     0.026 A 
HETATM   15 CL   LIG     1      14.927  30.403  20.884  1.00  0.00    -0.084 Cl
HETATM   16  C   LIG     1      15.586  33.858  18.903  1.00  0.00     0.039 A 
HETATM   17  C   LIG     1      14.878  33.673  17.707  1.00  0.00     0.072 A 
BRANCH  17  18
HETATM   18  O   LIG     1      14.868  34.678  16.741  1.00  0.00    -0.360 OA
HETATM   19  H   LIG     1      14.768  34.467  15.755  1.00  0.00     0.217 HD
ENDBRANCH  17  18
ENDBRANCH   1  11
TORSDOF 4
ENDMDL
MODEL 7
REMARK VINA RESULT:      -6.1      1.752      2.965
REMARK  4 active torsions:
REMARK  status: ('A' for Active; 'I' for Inactive)
REMARK    1  A    between atoms: O_1  and  C_2 
REMARK    2  A    between atoms: C_3  and  C_9 
REMARK    3  A    between atoms: C_9  and  C_10 
REMARK    4  A    between atoms: C_16  and  O_17 
ROOT
HETATM    1  C   LIG     1      16.761  38.081  22.668  1.00  0.00     0.083 C 
ENDROOT
BRANCH   1   2
HETATM    2  C   LIG     1      17.762  38.163  21.526  1.00  0.00    -0.019 A 
HETATM    3  C   LIG     1      18.902  39.006  21.605  1.00  0.00     0.072 A 
HETATM    4  C   LIG     1      19.789  39.081  20.524  1.00  0.00     0.039 A 
HETATM    5  C   LIG     1      19.594  38.295  19.389  1.00  0.00     0.026 A 
HETATM    6  C   LIG     1      18.516  37.414  19.327  1.00  0.00     0.034 A 
HETATM    7  C   LIG     1      17.612  37.338  20.391  1.00  0.00     0.034 A 
HETATM    8 CL   LIG     1      18.292  36.400  17.912  1.00  0.00    -0.084 Cl
BRANCH   3   9
HETATM    9  O   LIG     1      19.202  39.765  22.739  1.00  0.00    -0.360 OA
HETATM   10  H   LIG     1      20.125  40.118  22.953  1.00  0.00     0.217 HD
ENDBRANCH   3   9
ENDBRANCH   1   2
BRANCH   1  11
HETATM   11  C   LIG     1      17.093  37.006  23.678  1.00  0.00    -0.019 A 
HETATM   12  C   LIG     1      17.776  37.338  24.861  1.00  0.00     0.034 A 
HETATM   13  C   LIG     1      18.095  36.348  25.796  1.00  0.00     0.034 A 
HETATM   14  C   LIG     1      17.732  35.020  25.559  1.00  0.00     0.026 A 
HETATM   15 CL   LIG     1      18.953  36.774  27.266  1.00  0.00    -0.084 Cl
HETATM   16  C   LIG     1      17.050  34.678  24.389  1.00  0.00     0.039 A 
HETATM   17  C   LIG     1      16.727  35.664  23.446  1.00  0.00     0.072 A 
BRANCH  17  18
HETATM   18  O   LIG     1      16.046  35.317  22.280  1.00  0.00    -0.360 OA
HETATM   19  H   LIG     1      16.175  34.414  21.838  1.00  0.00     0.217 HD
ENDBRANCH  17  18
ENDBRANCH   1  11
TORSDOF 4
ENDMDL
MODEL 8
REMARK VINA RESULT:      -5.9      3.116      4.643
REMARK  4 active torsions:
REMARK  status: ('A' for Active; 'I' for Inactive)
REMARK    1  A    between atoms: O_1  and  C_2 
REMARK    2  A    between atoms: C_3  and  C_9 
REMARK    3  A    between atoms: C_9  and  C_10 
REMARK    4  A    between atoms: C_16  and  O_17 
ROOT
HETATM    1  C   LIG     1      14.996  35.506  21.472  1.00  0.00     0.083 C 
ENDROOT
BRANCH   1   2
HETATM    2  C   LIG     1      15.050  34.430  20.400  1.00  0.00    -0.019 A 
HETATM    3  C   LIG     1      14.675  33.089  20.681  1.00  0.00     0.072 A 
HETATM    4  C   LIG     1      14.765  32.116  19.679  1.00  0.00     0.039 A 
HETATM    5  C   LIG     1      15.167  32.458  18.389  1.00  0.00     0.026 A 
HETATM    6  C   LIG     1      15.473  33.784  18.082  1.00  0.00     0.034 A 
HETATM    7  C   LIG     1      15.403  34.766  19.075  1.00  0.00     0.034 A 
HETATM    8 CL   LIG     1      15.945  34.220  16.450  1.00  0.00    -0.084 Cl
BRANCH   3   9
HETATM    9  O   LIG     1      14.192  32.687  21.930  1.00  0.00    -0.360 OA
HETATM   10  H   LIG     1      14.785  32.460  22.716  1.00  0.00     0.217 HD
ENDBRANCH   3   9
ENDBRANCH   1   2
BRANCH   1  11
HETATM   11  C   LIG     1      16.168  36.460  21.421  1.00  0.00    -0.019 A 
HETATM   12  C   LIG     1      17.264  36.184  20.586  1.00  0.00     0.034 A 
HETATM   13  C   LIG     1      18.357  37.057  20.540  1.00  0.00     0.034 A 
HETATM   14  C   LIG     1      18.361  38.213  21.325  1.00  0.00     0.026 A 
HETATM   15 CL   LIG     1      19.722  36.699  19.497  1.00  0.00    -0.084 Cl
HETATM   16  C   LIG     1      17.276  38.499  22.156  1.00  0.00     0.039 A 
HETATM   17  C   LIG     1      16.177  37.630  22.209  1.00  0.00     0.072 A 
BRANCH  17  18
HETATM   18  O   LIG     1      15.097  37.921  23.041  1.00  0.00    -0.360 OA
HETATM   19  H   LIG     1      14.885  38.871  23.324  1.00  0.00     0.217 HD
ENDBRANCH  17  18
ENDBRANCH   1  11
TORSDOF 4
ENDMDL
MODEL 9
REMARK VINA RESULT:      -5.8      2.359      2.718
REMARK  4 active torsions:
REMARK  status: ('A' for Active; 'I' for Inactive)
REMARK    1  A    between atoms: O_1  and  C_2 
REMARK    2  A    between atoms: C_3  and  C_9 
REMARK    3  A    between atoms: C_9  and  C_10 
REMARK    4  A    between atoms: C_16  and  O_17 
ROOT
HETATM    1  C   LIG     1      16.795  38.055  23.198  1.00  0.00     0.083 C 
ENDROOT
BRANCH   1   2
HETATM    2  C   LIG     1      17.133  37.415  21.861  1.00  0.00    -0.019 A 
HETATM    3  C   LIG     1      18.216  37.885  21.072  1.00  0.00     0.072 A 
HETATM    4  C   LIG     1      18.481  37.293  19.831  1.00  0.00     0.039 A 
HETATM    5  C   LIG     1      17.727  36.209  19.384  1.00  0.00     0.026 A 
HETATM    6  C   LIG     1      16.704  35.695  20.180  1.00  0.00     0.034 A 
HETATM    7  C   LIG     1      16.416  36.284  21.415  1.00  0.00     0.034 A 
HETATM    8 CL   LIG     1      15.778  34.309  19.632  1.00  0.00    -0.084 Cl
BRANCH   3   9
HETATM    9  O   LIG     1      19.060  38.918  21.488  1.00  0.00    -0.360 OA
HETATM   10  H   LIG     1      20.003  38.774  21.822  1.00  0.00     0.217 HD
ENDBRANCH   3   9
ENDBRANCH   1   2
BRANCH   1  11
HETATM   11  C   LIG     1      17.399  37.326  24.379  1.00  0.00    -0.019 A 
HETATM   12  C   LIG     1      16.740  36.214  24.931  1.00  0.00     0.034 A 
HETATM   13  C   LIG     1      17.286  35.540  26.028  1.00  0.00     0.034 A 
HETATM   14  C   LIG     1      18.496  35.970  26.580  1.00  0.00     0.026 A 
HETATM   15 CL   LIG     1      16.452  34.157  26.713  1.00  0.00    -0.084 Cl
HETATM   16  C   LIG     1      19.161  37.071  26.038  1.00  0.00     0.039 A 
HETATM   17  C   LIG     1      18.620  37.753  24.938  1.00  0.00     0.072 A 
BRANCH  17  18
HETATM   18  O   LIG     1      19.290  38.852  24.401  1.00  0.00    -0.360 OA
HETATM   19  H   LIG     1      19.845  39.472  24.980  1.00  0.00     0.217 HD
ENDBRANCH  17  18
ENDBRANCH   1  11
TORSDOF 4
ENDMDL
MODEL 10
REMARK VINA RESULT:      -5.4      5.536      7.598
REMARK  4 active torsions:
REMARK  status: ('A' for Active; 'I' for Inactive)
REMARK    1  A    between atoms: O_1  and  C_2 
REMARK    2  A    between atoms: C_3  and  C_9 
REMARK    3  A    between atoms: C_9  and  C_10 
REMARK    4  A    between atoms: C_16  and  O_17 
ROOT
HETATM    1  C   LIG     1      14.352  33.733  16.907  1.00  0.00     0.083 C 
ENDROOT
BRANCH   1   2
HETATM    2  C   LIG     1      15.205  33.003  15.882  1.00  0.00    -0.019 A 
HETATM    3  C   LIG     1      16.378  33.596  15.343  1.00  0.00     0.072 A 
HETATM    4  C   LIG     1      17.125  32.909  14.378  1.00  0.00     0.039 A 
HETATM    5  C   LIG     1      16.761  31.624  13.978  1.00  0.00     0.026 A 
HETATM    6  C   LIG     1      15.650  31.004  14.549  1.00  0.00     0.034 A 
HETATM    7  C   LIG     1      14.884  31.682  15.502  1.00  0.00     0.034 A 
HETATM    8 CL   LIG     1      15.212  29.374  14.071  1.00  0.00    -0.084 Cl
BRANCH   3   9
HETATM    9  O   LIG     1      16.845  34.848  15.750  1.00  0.00    -0.360 OA
HETATM   10  H   LIG     1      16.419  35.723  15.479  1.00  0.00     0.217 HD
ENDBRANCH   3   9
ENDBRANCH   1   2
BRANCH   1  11
HETATM   11  C   LIG     1      14.932  33.695  18.303  1.00  0.00    -0.019 A 
HETATM   12  C   LIG     1      15.596  34.822  18.819  1.00  0.00     0.034 A 
HETATM   13  C   LIG     1      16.144  34.792  20.106  1.00  0.00     0.034 A 
HETATM   14  C   LIG     1      16.029  33.640  20.888  1.00  0.00     0.026 A 
HETATM   15 CL   LIG     1      16.975  36.202  20.738  1.00  0.00    -0.084 Cl
HETATM   16  C   LIG     1      15.368  32.516  20.387  1.00  0.00     0.039 A 
HETATM   17  C   LIG     1      14.817  32.537  19.098  1.00  0.00     0.072 A 
BRANCH  17  18
HETATM   18  O   LIG     1      14.159  31.412  18.604  1.00  0.00    -0.360 OA
HETATM   19  H   LIG     1      14.231  31.138  17.630  1.00  0.00     0.217 HD
ENDBRANCH  17  18
ENDBRANCH   1  11
TORSDOF 4
ENDMDL
MODEL 11
REMARK VINA RESULT:      -5.4      5.466      8.512
REMARK  4 active torsions:
REMARK  status: ('A' for Active; 'I' for Inactive)
REMARK    1  A    between atoms: O_1  and  C_2 
REMARK    2  A    between atoms: C_3  and  C_9 
REMARK    3  A    between atoms: C_9  and  C_10 
REMARK    4  A    between atoms: C_16  and  O_17 
ROOT
HETATM    1  C   LIG     1      14.403  33.814  16.924  1.00  0.00     0.083 C 
ENDROOT
BRANCH   1   2
HETATM    2  C   LIG     1      14.968  33.790  18.335  1.00  0.00    -0.019 A 
HETATM    3  C   LIG     1      14.842  32.641  19.160  1.00  0.00     0.072 A 
HETATM    4  C   LIG     1      15.348  32.662  20.466  1.00  0.00     0.039 A 
HETATM    5  C   LIG     1      16.024  33.782  20.949  1.00  0.00     0.026 A 
HETATM    6  C   LIG     1      16.214  34.891  20.125  1.00  0.00     0.034 A 
HETATM    7  C   LIG     1      15.702  34.892  18.825  1.00  0.00     0.034 A 
HETATM    8 CL   LIG     1      17.096  36.286  20.722  1.00  0.00    -0.084 Cl
BRANCH   3   9
HETATM    9  O   LIG     1      14.243  31.458  18.720  1.00  0.00    -0.360 OA
HETATM   10  H   LIG     1      13.245  31.334  18.622  1.00  0.00     0.217 HD
ENDBRANCH   3   9
ENDBRANCH   1   2
BRANCH   1  11
HETATM   11  C   LIG     1      15.244  33.046  15.930  1.00  0.00    -0.019 A 
HETATM   12  C   LIG     1      14.864  31.750  15.539  1.00  0.00     0.034 A 
HETATM   13  C   LIG     1      15.642  31.029  14.626  1.00  0.00     0.034 A 
HETATM   14  C   LIG     1      16.802  31.598  14.094  1.00  0.00     0.026 A 
HETATM   15 CL   LIG     1      15.161  29.410  14.149  1.00  0.00    -0.084 Cl
HETATM   16  C   LIG     1      17.188  32.886  14.473  1.00  0.00     0.039 A 
HETATM   17  C   LIG     1      16.415  33.615  15.388  1.00  0.00     0.072 A 
BRANCH  17  18
HETATM   18  O   LIG     1      16.805  34.900  15.761  1.00  0.00    -0.360 OA
HETATM   19  H   LIG     1      16.256  35.457  16.406  1.00  0.00     0.217 HD
ENDBRANCH  17  18
ENDBRANCH   1  11
TORSDOF 4
ENDMDL
MODEL 12
REMARK VINA RESULT:      -5.3      1.753      2.108
REMARK  4 active torsions:
REMARK  status: ('A' for Active; 'I' for Inactive)
REMARK    1  A    between atoms: O_1  and  C_2 
REMARK    2  A    between atoms: C_3  and  C_9 
REMARK    3  A    between atoms: C_9  and  C_10 
REMARK    4  A    between atoms: C_16  and  O_17 
ROOT
HETATM    1  C   LIG     1      16.024  36.748  22.456  1.00  0.00     0.083 C 
ENDROOT
BRANCH   1   2
HETATM    2  C   LIG     1      17.010  36.887  21.306  1.00  0.00    -0.019 A 
HETATM    3  C   LIG     1      16.994  35.986  20.209  1.00  0.00     0.072 A 
HETATM    4  C   LIG     1      17.935  36.124  19.181  1.00  0.00     0.039 A 
HETATM    5  C   LIG     1      18.855  37.171  19.195  1.00  0.00     0.026 A 
HETATM    6  C   LIG     1      18.837  38.102  20.233  1.00  0.00     0.034 A 
HETATM    7  C   LIG     1      17.914  37.970  21.275  1.00  0.00     0.034 A 
HETATM    8 CL   LIG     1      19.973  39.440  20.231  1.00  0.00    -0.084 Cl
BRANCH   3   9
HETATM    9  O   LIG     1      16.054  34.958  20.090  1.00  0.00    -0.360 OA
HETATM   10  H   LIG     1      15.226  35.016  19.514  1.00  0.00     0.217 HD
ENDBRANCH   3   9
ENDBRANCH   1   2
BRANCH   1  11
HETATM   11  C   LIG     1      16.680  36.814  23.817  1.00  0.00    -0.019 A 
HETATM   12  C   LIG     1      16.701  38.026  24.530  1.00  0.00     0.034 A 
HETATM   13  C   LIG     1      17.313  38.098  25.785  1.00  0.00     0.034 A 
HETATM   14  C   LIG     1      17.906  36.960  26.340  1.00  0.00     0.026 A 
HETATM   15 CL   LIG     1      17.339  39.617  26.664  1.00  0.00    -0.084 Cl
HETATM   16  C   LIG     1      17.888  35.751  25.643  1.00  0.00     0.039 A 
HETATM   17  C   LIG     1      17.277  35.670  24.383  1.00  0.00     0.072 A 
BRANCH  17  18
HETATM   18  O   LIG     1      17.263  34.459  23.692  1.00  0.00    -0.360 OA
HETATM   19  H   LIG     1      18.088  33.874  23.627  1.00  0.00     0.217 HD
ENDBRANCH  17  18
ENDBRANCH   1  11
TORSDOF 4
ENDMDL
MODEL 13
REMARK VINA RESULT:      -5.3      1.657      5.045
REMARK  4 active torsions:
REMARK  status: ('A' for Active; 'I' for Inactive)
REMARK    1  A    between atoms: O_1  and  C_2 
REMARK    2  A    between atoms: C_3  and  C_9 
REMARK    3  A    between atoms: C_9  and  C_10 
REMARK    4  A    between atoms: C_16  and  O_17 
ROOT
HETATM    1  C   LIG     1      16.388  37.555  22.905  1.00  0.00     0.083 C 
ENDROOT
BRANCH   1   2
HETATM    2  C   LIG     1      16.966  36.674  24.002  1.00  0.00    -0.019 A 
HETATM    3  C   LIG     1      16.793  35.265  23.984  1.00  0.00     0.072 A 
HETATM    4  C   LIG     1      17.313  34.487  25.026  1.00  0.00     0.039 A 
HETATM    5  C   LIG     1      18.046  35.074  26.055  1.00  0.00     0.026 A 
HETATM    6  C   LIG     1      18.280  36.448  26.049  1.00  0.00     0.034 A 
HETATM    7  C   LIG     1      17.756  37.243  25.025  1.00  0.00     0.034 A 
HETATM    8 CL   LIG     1      19.234  37.182  27.327  1.00  0.00    -0.084 Cl
BRANCH   3   9
HETATM    9  O   LIG     1      16.134  34.599  22.948  1.00  0.00    -0.360 OA
HETATM   10  H   LIG     1      16.221  33.608  22.770  1.00  0.00     0.217 HD
ENDBRANCH   3   9
ENDBRANCH   1   2
BRANCH   1  11
HETATM   11  C   LIG     1      17.424  38.023  21.907  1.00  0.00    -0.019 A 
HETATM   12  C   LIG     1      17.951  37.122  20.966  1.00  0.00     0.034 A 
HETATM   13  C   LIG     1      18.916  37.545  20.045  1.00  0.00     0.034 A 
HETATM   14  C   LIG     1      19.358  38.870  20.055  1.00  0.00     0.026 A 
HETATM   15 CL   LIG     1      19.571  36.410  18.878  1.00  0.00    -0.084 Cl
HETATM   16  C   LIG     1      18.838  39.775  20.983  1.00  0.00     0.039 A 
HETATM   17  C   LIG     1      17.871  39.360  21.910  1.00  0.00     0.072 A 
BRANCH  17  18
HETATM   18  O   LIG     1      17.357  40.268  22.835  1.00  0.00    -0.360 OA
HETATM   19  H   LIG     1      17.048  41.192  22.557  1.00  0.00     0.217 HD
ENDBRANCH  17  18
ENDBRANCH   1  11
TORSDOF 4
ENDMDL
MODEL 14
REMARK VINA RESULT:      -5.2      4.172      6.102
REMARK  4 active torsions:
REMARK  status: ('A' for Active; 'I' for Inactive)
REMARK    1  A    between atoms: O_1  and  C_2 
REMARK    2  A    between atoms: C_3  and  C_9 
REMARK    3  A    between atoms: C_9  and  C_10 
REMARK    4  A    between atoms: C_16  and  O_17 
ROOT
HETATM    1  C   LIG     1      14.668  34.702  18.150  1.00  0.00     0.083 C 
ENDROOT
BRANCH   1   2
HETATM    2  C   LIG     1      15.174  33.690  17.135  1.00  0.00    -0.019 A 
HETATM    3  C   LIG     1      14.594  32.398  17.029  1.00  0.00     0.072 A 
HETATM    4  C   LIG     1      15.104  31.480  16.103  1.00  0.00     0.039 A 
HETATM    5  C   LIG     1      16.141  31.838  15.243  1.00  0.00     0.026 A 
HETATM    6  C   LIG     1      16.674  33.126  15.291  1.00  0.00     0.034 A 
HETATM    7  C   LIG     1      16.187  34.050  16.220  1.00  0.00     0.034 A 
HETATM    8 CL   LIG     1      17.955  33.586  14.184  1.00  0.00    -0.084 Cl
BRANCH   3   9
HETATM    9  O   LIG     1      13.505  31.995  17.805  1.00  0.00    -0.360 OA
HETATM   10  H   LIG     1      13.428  31.085  18.238  1.00  0.00     0.217 HD
ENDBRANCH   3   9
ENDBRANCH   1   2
BRANCH   1  11
HETATM   11  C   LIG     1      15.587  34.865  19.341  1.00  0.00    -0.019 A 
HETATM   12  C   LIG     1      16.560  35.879  19.344  1.00  0.00     0.034 A 
HETATM   13  C   LIG     1      17.420  36.031  20.437  1.00  0.00     0.034 A 
HETATM   14  C   LIG     1      17.312  35.175  21.536  1.00  0.00     0.026 A 
HETATM   15 CL   LIG     1      18.636  37.297  20.428  1.00  0.00    -0.084 Cl
HETATM   16  C   LIG     1      16.347  34.166  21.545  1.00  0.00     0.039 A 
HETATM   17  C   LIG     1      15.481  34.006  20.453  1.00  0.00     0.072 A 
BRANCH  17  18
HETATM   18  O   LIG     1      14.519  32.997  20.469  1.00  0.00    -0.360 OA
HETATM   19  H   LIG     1      13.960  32.782  19.651  1.00  0.00     0.217 HD
ENDBRANCH  17  18
ENDBRANCH   1  11
TORSDOF 4
ENDMDL
MODEL 15
REMARK VINA RESULT:      -5.2      5.181      8.694
REMARK  4 active torsions:
REMARK  status: ('A' for Active; 'I' for Inactive)
REMARK    1  A    between atoms: O_1  and  C_2 
REMARK    2  A    between atoms: C_3  and  C_9 
REMARK    3  A    between atoms: C_9  and  C_10 
REMARK    4  A    between atoms: C_16  and  O_17 
ROOT
HETATM    1  C   LIG     1      14.285  33.648  16.955  1.00  0.00     0.083 C 
ENDROOT
BRANCH   1   2
HETATM    2  C   LIG     1      14.908  33.693  18.341  1.00  0.00    -0.019 A 
HETATM    3  C   LIG     1      14.844  32.575  19.215  1.00  0.00     0.072 A 
HETATM    4  C   LIG     1      15.403  32.660  20.496  1.00  0.00     0.039 A 
HETATM    5  C   LIG     1      16.071  33.813  20.906  1.00  0.00     0.026 A 
HETATM    6  C   LIG     1      16.199  34.893  20.033  1.00  0.00     0.034 A 
HETATM    7  C   LIG     1      15.634  34.831  18.756  1.00  0.00     0.034 A 
HETATM    8 CL   LIG     1      17.071  36.330  20.537  1.00  0.00    -0.084 Cl
BRANCH   3   9
HETATM    9  O   LIG     1      14.256  31.363  18.846  1.00  0.00    -0.360 OA
HETATM   10  H   LIG     1      13.258  31.213  18.796  1.00  0.00     0.217 HD
ENDBRANCH   3   9
ENDBRANCH   1   2
BRANCH   1  11
HETATM   11  C   LIG     1      15.117  32.885  15.949  1.00  0.00    -0.019 A 
HETATM   12  C   LIG     1      16.283  33.463  15.417  1.00  0.00     0.034 A 
HETATM   13  C   LIG     1      17.053  32.768  14.480  1.00  0.00     0.034 A 
HETATM   14  C   LIG     1      16.668  31.489  14.069  1.00  0.00     0.026 A 
HETATM   15 CL   LIG     1      18.504  33.502  13.818  1.00  0.00    -0.084 Cl
HETATM   16  C   LIG     1      15.514  30.903  14.593  1.00  0.00     0.039 A 
HETATM   17  C   LIG     1      14.735  31.593  15.533  1.00  0.00     0.072 A 
BRANCH  17  18
HETATM   18  O   LIG     1      13.584  31.003  16.052  1.00  0.00    -0.360 OA
HETATM   19  H   LIG     1      13.013  31.471  16.747  1.00  0.00     0.217 HD
ENDBRANCH  17  18
ENDBRANCH   1  11
TORSDOF 4
ENDMDL
MODEL 16
REMARK VINA RESULT:      -5.1      5.206      7.282
REMARK  4 active torsions:
REMARK  status: ('A' for Active; 'I' for Inactive)
REMARK    1  A    between atoms: O_1  and  C_2 
REMARK    2  A    between atoms: C_3  and  C_9 
REMARK    3  A    between atoms: C_9  and  C_10 
REMARK    4  A    between atoms: C_16  and  O_17 
ROOT
HETATM    1  C   LIG     1      14.297  33.637  16.968  1.00  0.00     0.083 C 
ENDROOT
BRANCH   1   2
HETATM    2  C   LIG     1      15.127  32.874  15.949  1.00  0.00    -0.019 A 
HETATM    3  C   LIG     1      14.734  31.589  15.490  1.00  0.00     0.072 A 
HETATM    4  C   LIG     1      15.537  30.901  14.573  1.00  0.00     0.039 A 
HETATM    5  C   LIG     1      16.694  31.486  14.061  1.00  0.00     0.026 A 
HETATM    6  C   LIG     1      17.056  32.775  14.453  1.00  0.00     0.034 A 
HETATM    7  C   LIG     1      16.274  33.470  15.379  1.00  0.00     0.034 A 
HETATM    8 CL   LIG     1      18.494  33.524  13.782  1.00  0.00    -0.084 Cl
BRANCH   3   9
HETATM    9  O   LIG     1      13.550  30.972  15.902  1.00  0.00    -0.360 OA
HETATM   10  H   LIG     1      13.513  30.210  16.565  1.00  0.00     0.217 HD
ENDBRANCH   3   9
ENDBRANCH   1   2
BRANCH   1  11
HETATM   11  C   LIG     1      14.922  33.671  18.345  1.00  0.00    -0.019 A 
HETATM   12  C   LIG     1      15.589  34.827  18.786  1.00  0.00     0.034 A 
HETATM   13  C   LIG     1      16.178  34.863  20.055  1.00  0.00     0.034 A 
HETATM   14  C   LIG     1      16.103  33.747  20.892  1.00  0.00     0.026 A 
HETATM   15 CL   LIG     1      17.012  36.310  20.594  1.00  0.00    -0.084 Cl
HETATM   16  C   LIG     1      15.441  32.594  20.465  1.00  0.00     0.039 A 
HETATM   17  C   LIG     1      14.848  32.549  19.195  1.00  0.00     0.072 A 
BRANCH  17  18
HETATM   18  O   LIG     1      14.188  31.395  18.775  1.00  0.00    -0.360 OA
HETATM   19  H   LIG     1      14.613  30.747  18.121  1.00  0.00     0.217 HD
ENDBRANCH  17  18
ENDBRANCH   1  11
TORSDOF 4
ENDMDL
MODEL 17
REMARK VINA RESULT:      -5.1      6.713      8.532
REMARK  4 active torsions:
REMARK  status: ('A' for Active; 'I' for Inactive)
REMARK    1  A    between atoms: O_1  and  C_2 
REMARK    2  A    between atoms: C_3  and  C_9 
REMARK    3  A    between atoms: C_9  and  C_10 
REMARK    4  A    between atoms: C_16  and  O_17 
ROOT
HETATM    1  C   LIG     1      13.366  32.164  16.398  1.00  0.00     0.083 C 
ENDROOT
BRANCH   1   2
HETATM    2  C   LIG     1      14.175  31.471  15.313  1.00  0.00    -0.019 A 
HETATM    3  C   LIG     1      13.828  30.175  14.849  1.00  0.00     0.072 A 
HETATM    4  C   LIG     1      14.612  29.553  13.869  1.00  0.00     0.039 A 
HETATM    5  C   LIG     1      15.700  30.215  13.303  1.00  0.00     0.026 A 
HETATM    6  C   LIG     1      16.010  31.515  13.701  1.00  0.00     0.034 A 
HETATM    7  C   LIG     1      15.248  32.145  14.689  1.00  0.00     0.034 A 
HETATM    8 CL   LIG     1      17.359  32.360  12.963  1.00  0.00    -0.084 Cl
BRANCH   3   9
HETATM    9  O   LIG     1      12.709  29.481  15.316  1.00  0.00    -0.360 OA
HETATM   10  H   LIG     1      12.245  28.747  14.800  1.00  0.00     0.217 HD
ENDBRANCH   3   9
ENDBRANCH   1   2
BRANCH   1  11
HETATM   11  C   LIG     1      14.154  32.413  17.665  1.00  0.00    -0.019 A 
HETATM   12  C   LIG     1      14.252  31.406  18.641  1.00  0.00     0.034 A 
HETATM   13  C   LIG     1      14.971  31.631  19.820  1.00  0.00     0.034 A 
HETATM   14  C   LIG     1      15.601  32.861  20.030  1.00  0.00     0.026 A 
HETATM   15 CL   LIG     1      15.082  30.370  21.034  1.00  0.00    -0.084 Cl
HETATM   16  C   LIG     1      15.513  33.867  19.065  1.00  0.00     0.039 A 
HETATM   17  C   LIG     1      14.794  33.650  17.881  1.00  0.00     0.072 A 
BRANCH  17  18
HETATM   18  O   LIG     1      14.710  34.658  16.922  1.00  0.00    -0.360 OA
HETATM   19  H   LIG     1      14.086  34.586  16.127  1.00  0.00     0.217 HD
ENDBRANCH  17  18
ENDBRANCH   1  11
TORSDOF 4
ENDMDL
MODEL 18
REMARK VINA RESULT:      -4.8     17.019     18.553
REMARK  4 active torsions:
REMARK  status: ('A' for Active; 'I' for Inactive)
REMARK    1  A    between atoms: O_1  and  C_2 
REMARK    2  A    between atoms: C_3  and  C_9 
REMARK    3  A    between atoms: C_9  and  C_10 
REMARK    4  A    between atoms: C_16  and  O_17 
ROOT
HETATM    1  C   LIG     1      27.691  30.682  34.008  1.00  0.00     0.083 C 
ENDROOT
BRANCH   1   2
HETATM    2  C   LIG     1      27.761  31.152  35.452  1.00  0.00    -0.019 A 
HETATM    3  C   LIG     1      26.594  31.239  36.256  1.00  0.00     0.072 A 
HETATM    4  C   LIG     1      26.690  31.704  37.573  1.00  0.00     0.039 A 
HETATM    5  C   LIG     1      27.928  32.033  38.124  1.00  0.00     0.026 A 
HETATM    6  C   LIG     1      29.089  31.887  37.366  1.00  0.00     0.034 A 
HETATM    7  C   LIG     1      29.010  31.439  36.045  1.00  0.00     0.034 A 
HETATM    8 CL   LIG     1      30.650  32.267  38.071  1.00  0.00    -0.084 Cl
BRANCH   3   9
HETATM    9  O   LIG     1      25.331  30.857  35.797  1.00  0.00    -0.360 OA
HETATM   10  H   LIG     1      25.080  30.806  34.819  1.00  0.00     0.217 HD
ENDBRANCH   3   9
ENDBRANCH   1   2
BRANCH   1  11
HETATM   11  C   LIG     1      28.049  29.222  33.836  1.00  0.00    -0.019 A 
HETATM   12  C   LIG     1      27.122  28.225  34.187  1.00  0.00     0.034 A 
HETATM   13  C   LIG     1      27.448  26.872  34.040  1.00  0.00     0.034 A 
HETATM   14  C   LIG     1      28.700  26.506  33.538  1.00  0.00     0.026 A 
HETATM   15 CL   LIG     1      26.286  25.636  34.486  1.00  0.00    -0.084 Cl
HETATM   16  C   LIG     1      29.627  27.488  33.183  1.00  0.00     0.039 A 
HETATM   17  C   LIG     1      29.309  28.846  33.328  1.00  0.00     0.072 A 
BRANCH  17  18
HETATM   18  O   LIG     1      30.239  29.822  32.971  1.00  0.00    -0.360 OA
HETATM   19  H   LIG     1      30.972  30.115  33.607  1.00  0.00     0.217 HD
ENDBRANCH  17  18
ENDBRANCH   1  11
TORSDOF 4
ENDMDL
MODEL 19
REMARK VINA RESULT:      -4.7     16.127     17.842
REMARK  4 active torsions:
REMARK  status: ('A' for Active; 'I' for Inactive)
REMARK    1  A    between atoms: O_1  and  C_2 
REMARK    2  A    between atoms: C_3  and  C_9 
REMARK    3  A    between atoms: C_9  and  C_10 
REMARK    4  A    between atoms: C_16  and  O_17 
ROOT
HETATM    1  C   LIG     1      22.985  22.577  21.619  1.00  0.00     0.083 C 
ENDROOT
BRANCH   1   2
HETATM    2  C   LIG     1      23.294  21.611  22.750  1.00  0.00    -0.019 A 
HETATM    3  C   LIG     1      24.360  21.854  23.657  1.00  0.00     0.072 A 
HETATM    4  C   LIG     1      24.637  20.928  24.670  1.00  0.00     0.039 A 
HETATM    5  C   LIG     1      23.843  19.794  24.835  1.00  0.00     0.026 A 
HETATM    6  C   LIG     1      22.753  19.579  23.993  1.00  0.00     0.034 A 
HETATM    7  C   LIG     1      22.471  20.485  22.967  1.00  0.00     0.034 A 
HETATM    8 CL   LIG     1      21.733  18.169  24.223  1.00  0.00    -0.084 Cl
BRANCH   3   9
HETATM    9  O   LIG     1      25.151  23.004  23.599  1.00  0.00    -0.360 OA
HETATM   10  H   LIG     1      25.121  23.744  24.287  1.00  0.00     0.217 HD
ENDBRANCH   3   9
ENDBRANCH   1   2
BRANCH   1  11
HETATM   11  C   LIG     1      23.568  22.150  20.290  1.00  0.00    -0.019 A 
HETATM   12  C   LIG     1      22.864  21.253  19.468  1.00  0.00     0.034 A 
HETATM   13  C   LIG     1      23.401  20.846  18.242  1.00  0.00     0.034 A 
HETATM   14  C   LIG     1      24.643  21.333  17.827  1.00  0.00     0.026 A 
HETATM   15 CL   LIG     1      22.516  19.722  17.227  1.00  0.00    -0.084 Cl
HETATM   16  C   LIG     1      25.350  22.227  18.634  1.00  0.00     0.039 A 
HETATM   17  C   LIG     1      24.820  22.640  19.864  1.00  0.00     0.072 A 
BRANCH  17  18
HETATM   18  O   LIG     1      25.531  23.533  20.665  1.00  0.00    -0.360 OA
HETATM   19  H   LIG     1      25.125  24.409  20.975  1.00  0.00     0.217 HD
ENDBRANCH  17  18
ENDBRANCH   1  11
TORSDOF 4
ENDMDL
MODEL 20
REMARK VINA RESULT:      -4.7     16.098     17.083
REMARK  4 active torsions:
REMARK  status: ('A' for Active; 'I' for Inactive)
REMARK    1  A    between atoms: O_1  and  C_2 
REMARK    2  A    between atoms: C_3  and  C_9 
REMARK    3  A    between atoms: C_9  and  C_10 
REMARK    4  A    between atoms: C_16  and  O_17 
ROOT
HETATM    1  C   LIG     1      22.977  22.624  21.625  1.00  0.00     0.083 C 
ENDROOT
BRANCH   1   2
HETATM    2  C   LIG     1      23.564  22.180  20.295  1.00  0.00    -0.019 A 
HETATM    3  C   LIG     1      24.852  22.607  19.878  1.00  0.00     0.072 A 
HETATM    4  C   LIG     1      25.351  22.203  18.634  1.00  0.00     0.039 A 
HETATM    5  C   LIG     1      24.618  21.341  17.819  1.00  0.00     0.026 A 
HETATM    6  C   LIG     1      23.381  20.861  18.247  1.00  0.00     0.034 A 
HETATM    7  C   LIG     1      22.861  21.265  19.480  1.00  0.00     0.034 A 
HETATM    8 CL   LIG     1      22.475  19.747  17.237  1.00  0.00    -0.084 Cl
BRANCH   3   9
HETATM    9  O   LIG     1      25.674  23.411  20.673  1.00  0.00    -0.360 OA
HETATM   10  H   LIG     1      26.412  23.052  21.262  1.00  0.00     0.217 HD
ENDBRANCH   3   9
ENDBRANCH   1   2
BRANCH   1  11
HETATM   11  C   LIG     1      23.263  21.661  22.756  1.00  0.00    -0.019 A 
HETATM   12  C   LIG     1      22.465  20.516  22.924  1.00  0.00     0.034 A 
HETATM   13  C   LIG     1      22.717  19.625  23.973  1.00  0.00     0.034 A 
HETATM   14  C   LIG     1      23.770  19.869  24.859  1.00  0.00     0.026 A 
HETATM   15 CL   LIG     1      21.712  18.202  24.177  1.00  0.00    -0.084 Cl
HETATM   16  C   LIG     1      24.571  21.002  24.701  1.00  0.00     0.039 A 
HETATM   17  C   LIG     1      24.325  21.901  23.652  1.00  0.00     0.072 A 
BRANCH  17  18
HETATM   18  O   LIG     1      25.128  23.030  23.499  1.00  0.00    -0.360 OA
HETATM   19  H   LIG     1      24.804  23.850  22.999  1.00  0.00     0.217 HD
ENDBRANCH  17  18
ENDBRANCH   1  11
TORSDOF 4
ENDMDL
