REMARK  4 active torsions:
REMARK  status: ('A' for Active; 'I' for Inactive)
REMARK    1  A    between atoms: O_1  and  C_2 
REMARK    2  A    between atoms: C_3  and  O_4 
REMARK    3  A    between atoms: C_7  and  C_8 
REMARK    4  A    between atoms: C_8  and  C_9 
ROOT
HETATM    1  C   LIG     1      -1.540  -1.297  -0.017  1.00  0.00     0.099 A 
HETATM    2  C   LIG     1      -1.400   0.040  -0.466  1.00  0.00     0.101 A 
HETATM    3  C   LIG     1      -0.120   0.609  -0.519  1.00  0.00     0.047 A 
HETATM    4  C   LIG     1       1.015  -0.124  -0.145  1.00  0.00    -0.052 A 
HETATM    5  C   LIG     1       0.864  -1.440   0.312  1.00  0.00     0.010 A 
HETATM    6  C   LIG     1      -0.403  -2.022   0.369  1.00  0.00     0.040 A 
ENDROOT
BRANCH   4   7
HETATM    7  C   LIG     1       2.377   0.516  -0.175  1.00  0.00     0.065 C 
BRANCH   7   8
HETATM    8  C   LIG     1       2.674   1.198   1.131  1.00  0.00    -0.032 C 
HETATM    9  C   LIG     1       3.832   1.834   1.324  1.00  0.00     0.007 C 
ENDBRANCH   7   8
ENDBRANCH   4   7
BRANCH   2  10
HETATM   10  O   LIG     1      -2.476   0.851  -0.869  1.00  0.00    -0.353 OA
HETATM   11  C   LIG     1      -3.848   0.475  -0.891  1.00  0.00     0.210 C 
ENDBRANCH   2  10
BRANCH   1  12
HETATM   12  O   LIG     1      -2.789  -1.912   0.052  1.00  0.00    -0.358 OA
HETATM   13  H   LIG     1      -2.897  -2.867   0.373  1.00  0.00     0.217 HD
ENDBRANCH   1  12
TORSDOF 4
