MODEL 1
REMARK VINA RESULT:      -6.1      0.000      0.000
REMARK  1 active torsions:
REMARK  status: ('A' for Active; 'I' for Inactive)
REMARK       I    between atoms: N_1  and  C_2 
REMARK       I    between atoms: C_2  and  N_3 
REMARK    1  A    between atoms: N_3  and  C_4 
ROOT
HETATM    1  C   LIG     1      17.467  38.386  21.959  1.00  0.00     0.284 A 
HETATM    2  C   LIG     1      18.557  38.296  20.928  1.00  0.00     0.268 A 
HETATM    3  N   LIG     1      18.487  37.099  20.168  1.00  0.00    -0.276 N 
HETATM    4  O   LIG     1      19.431  39.180  20.735  1.00  0.00    -0.269 OA
HETATM    5  N   LIG     1      16.724  37.145  21.745  1.00  0.00    -0.313 N 
HETATM    6  C   LIG     1      17.358  36.430  20.694  1.00  0.00     0.324 A 
HETATM    7  O   LIG     1      16.952  35.316  20.270  1.00  0.00    -0.247 OA
HETATM    8  H   LIG     1      19.111  36.793  19.389  1.00  0.00     0.173 HD
HETATM    9  H   LIG     1      15.864  36.846  22.254  1.00  0.00     0.166 HD
ENDROOT
BRANCH   1  10
HETATM   10  N   LIG     1      18.019  38.421  23.314  1.00  0.00    -0.314 N 
HETATM   11  C   LIG     1      17.204  38.180  24.468  1.00  0.00     0.315 C 
HETATM   12  N   LIG     1      17.786  38.215  25.771  1.00  0.00    -0.352 N 
HETATM   13  O   LIG     1      15.974  37.939  24.343  1.00  0.00    -0.248 OA
HETATM   14  H   LIG     1      17.197  38.042  26.615  1.00  0.00     0.160 HD
HETATM   15  H   LIG     1      18.803  38.413  25.894  1.00  0.00     0.160 HD
HETATM   16  H   LIG     1      19.028  38.653  23.458  1.00  0.00     0.166 HD
ENDBRANCH   1  10
TORSDOF 1
ENDMDL
MODEL 2
REMARK VINA RESULT:      -5.8      6.182      8.249
REMARK  1 active torsions:
REMARK  status: ('A' for Active; 'I' for Inactive)
REMARK       I    between atoms: N_1  and  C_2 
REMARK       I    between atoms: C_2  and  N_3 
REMARK    1  A    between atoms: N_3  and  C_4 
ROOT
HETATM    1  C   LIG     1      14.874  33.024  17.217  1.00  0.00     0.284 A 
HETATM    2  C   LIG     1      14.250  31.845  17.909  1.00  0.00     0.268 A 
HETATM    3  N   LIG     1      14.399  31.903  19.319  1.00  0.00    -0.276 N 
HETATM    4  O   LIG     1      13.645  30.912  17.322  1.00  0.00    -0.269 OA
HETATM    5  N   LIG     1      15.401  33.806  18.334  1.00  0.00    -0.313 N 
HETATM    6  C   LIG     1      15.100  33.112  19.536  1.00  0.00     0.324 A 
HETATM    7  O   LIG     1      15.421  33.532  20.678  1.00  0.00    -0.247 OA
HETATM    8  H   LIG     1      14.052  31.223  20.032  1.00  0.00     0.173 HD
HETATM    9  H   LIG     1      15.889  34.726  18.267  1.00  0.00     0.166 HD
ENDROOT
BRANCH   1  10
HETATM   10  N   LIG     1      15.963  32.605  16.333  1.00  0.00    -0.314 N 
HETATM   11  C   LIG     1      16.795  33.555  15.655  1.00  0.00     0.315 C 
HETATM   12  N   LIG     1      17.851  33.102  14.808  1.00  0.00    -0.352 N 
HETATM   13  O   LIG     1      16.599  34.791  15.798  1.00  0.00    -0.248 OA
HETATM   14  H   LIG     1      18.458  33.790  14.310  1.00  0.00     0.160 HD
HETATM   15  H   LIG     1      18.027  32.082  14.678  1.00  0.00     0.160 HD
HETATM   16  H   LIG     1      16.132  31.587  16.162  1.00  0.00     0.166 HD
ENDBRANCH   1  10
TORSDOF 1
ENDMDL
MODEL 3
REMARK VINA RESULT:      -5.7      2.231      4.353
REMARK  1 active torsions:
REMARK  status: ('A' for Active; 'I' for Inactive)
REMARK       I    between atoms: N_1  and  C_2 
REMARK       I    between atoms: C_2  and  N_3 
REMARK    1  A    between atoms: N_3  and  C_4 
ROOT
HETATM    1  C   LIG     1      17.094  37.246  23.099  1.00  0.00     0.284 A 
HETATM    2  C   LIG     1      17.039  38.566  23.815  1.00  0.00     0.268 A 
HETATM    3  N   LIG     1      17.277  38.438  25.208  1.00  0.00    -0.276 N 
HETATM    4  O   LIG     1      16.824  39.673  23.256  1.00  0.00    -0.269 OA
HETATM    5  N   LIG     1      17.400  36.311  24.180  1.00  0.00    -0.313 N 
HETATM    6  C   LIG     1      17.495  37.052  25.388  1.00  0.00     0.324 A 
HETATM    7  O   LIG     1      17.753  36.529  26.503  1.00  0.00    -0.247 OA
HETATM    8  H   LIG     1      17.305  39.192  25.929  1.00  0.00     0.173 HD
HETATM    9  H   LIG     1      17.550  35.282  24.082  1.00  0.00     0.166 HD
ENDROOT
BRANCH   1  10
HETATM   10  N   LIG     1      15.803  36.916  22.493  1.00  0.00    -0.314 N 
HETATM   11  C   LIG     1      15.620  35.737  21.699  1.00  0.00     0.315 C 
HETATM   12  N   LIG     1      14.341  35.450  21.134  1.00  0.00    -0.352 N 
HETATM   13  O   LIG     1      16.582  34.950  21.493  1.00  0.00    -0.248 OA
HETATM   14  H   LIG     1      14.202  34.593  20.553  1.00  0.00     0.160 HD
HETATM   15  H   LIG     1      13.533  36.091  21.294  1.00  0.00     0.160 HD
HETATM   16  H   LIG     1      14.992  37.565  22.613  1.00  0.00     0.166 HD
ENDBRANCH   1  10
TORSDOF 1
ENDMDL
MODEL 4
REMARK VINA RESULT:      -5.7      1.464      1.526
REMARK  1 active torsions:
REMARK  status: ('A' for Active; 'I' for Inactive)
REMARK       I    between atoms: N_1  and  C_2 
REMARK       I    between atoms: C_2  and  N_3 
REMARK    1  A    between atoms: N_3  and  C_4 
ROOT
HETATM    1  C   LIG     1      16.453  36.867  22.371  1.00  0.00     0.284 A 
HETATM    2  C   LIG     1      17.485  37.065  21.297  1.00  0.00     0.268 A 
HETATM    3  N   LIG     1      17.449  36.041  20.314  1.00  0.00    -0.276 N 
HETATM    4  O   LIG     1      18.289  38.032  21.249  1.00  0.00    -0.269 OA
HETATM    5  N   LIG     1      15.780  35.641  21.943  1.00  0.00    -0.313 N 
HETATM    6  C   LIG     1      16.397  35.199  20.742  1.00  0.00     0.324 A 
HETATM    7  O   LIG     1      16.040  34.164  20.120  1.00  0.00    -0.247 OA
HETATM    8  H   LIG     1      18.046  35.944  19.462  1.00  0.00     0.173 HD
HETATM    9  H   LIG     1      14.972  35.183  22.418  1.00  0.00     0.166 HD
ENDROOT
BRANCH   1  10
HETATM   10  N   LIG     1      17.079  36.672  23.679  1.00  0.00    -0.314 N 
HETATM   11  C   LIG     1      17.204  37.742  24.624  1.00  0.00     0.315 C 
HETATM   12  N   LIG     1      17.814  37.505  25.893  1.00  0.00    -0.352 N 
HETATM   13  O   LIG     1      16.781  38.895  24.343  1.00  0.00    -0.248 OA
HETATM   14  H   LIG     1      17.910  38.281  26.584  1.00  0.00     0.160 HD
HETATM   15  H   LIG     1      18.170  36.557  26.143  1.00  0.00     0.160 HD
HETATM   16  H   LIG     1      17.473  35.737  23.933  1.00  0.00     0.166 HD
ENDBRANCH   1  10
TORSDOF 1
ENDMDL
MODEL 5
REMARK VINA RESULT:      -5.5      1.976      4.223
REMARK  1 active torsions:
REMARK  status: ('A' for Active; 'I' for Inactive)
REMARK       I    between atoms: N_1  and  C_2 
REMARK       I    between atoms: C_2  and  N_3 
REMARK    1  A    between atoms: N_3  and  C_4 
ROOT
HETATM    1  C   LIG     1      17.342  36.250  21.351  1.00  0.00     0.284 A 
HETATM    2  C   LIG     1      17.860  37.659  21.280  1.00  0.00     0.268 A 
HETATM    3  N   LIG     1      17.195  38.528  22.185  1.00  0.00    -0.276 N 
HETATM    4  O   LIG     1      18.789  38.040  20.523  1.00  0.00    -0.269 OA
HETATM    5  N   LIG     1      16.315  36.341  22.388  1.00  0.00    -0.313 N 
HETATM    6  C   LIG     1      16.266  37.687  22.841  1.00  0.00     0.324 A 
HETATM    7  O   LIG     1      15.480  38.088  23.738  1.00  0.00    -0.247 OA
HETATM    8  H   LIG     1      17.365  39.546  22.344  1.00  0.00     0.173 HD
HETATM    9  H   LIG     1      15.736  35.553  22.753  1.00  0.00     0.166 HD
ENDROOT
BRANCH   1  10
HETATM   10  N   LIG     1      16.744  35.840  20.080  1.00  0.00    -0.314 N 
HETATM   11  C   LIG     1      15.882  34.699  19.983  1.00  0.00     0.315 C 
HETATM   12  N   LIG     1      15.314  34.339  18.725  1.00  0.00    -0.352 N 
HETATM   13  O   LIG     1      15.621  34.007  21.004  1.00  0.00    -0.248 OA
HETATM   14  H   LIG     1      14.686  33.508  18.648  1.00  0.00     0.160 HD
HETATM   15  H   LIG     1      15.518  34.900  17.869  1.00  0.00     0.160 HD
HETATM   16  H   LIG     1      16.967  36.369  19.206  1.00  0.00     0.166 HD
ENDBRANCH   1  10
TORSDOF 1
ENDMDL
MODEL 6
REMARK VINA RESULT:      -5.4      1.974      2.399
REMARK  1 active torsions:
REMARK  status: ('A' for Active; 'I' for Inactive)
REMARK       I    between atoms: N_1  and  C_2 
REMARK       I    between atoms: C_2  and  N_3 
REMARK    1  A    between atoms: N_3  and  C_4 
ROOT
HETATM    1  C   LIG     1      16.610  37.096  23.434  1.00  0.00     0.284 A 
HETATM    2  C   LIG     1      16.885  38.392  22.725  1.00  0.00     0.268 A 
HETATM    3  N   LIG     1      17.471  38.199  21.447  1.00  0.00    -0.276 N 
HETATM    4  O   LIG     1      16.617  39.530  23.191  1.00  0.00    -0.269 OA
HETATM    5  N   LIG     1      17.068  36.101  22.465  1.00  0.00    -0.313 N 
HETATM    6  C   LIG     1      17.561  36.793  21.326  1.00  0.00     0.324 A 
HETATM    7  O   LIG     1      18.027  36.212  20.311  1.00  0.00    -0.247 OA
HETATM    8  H   LIG     1      17.750  38.924  20.749  1.00  0.00     0.173 HD
HETATM    9  H   LIG     1      17.019  35.065  22.575  1.00  0.00     0.166 HD
ENDROOT
BRANCH   1  10
HETATM   10  N   LIG     1      17.384  36.993  24.672  1.00  0.00    -0.314 N 
HETATM   11  C   LIG     1      17.571  35.741  25.344  1.00  0.00     0.315 C 
HETATM   12  N   LIG     1      18.340  35.685  26.545  1.00  0.00    -0.352 N 
HETATM   13  O   LIG     1      17.058  34.686  24.884  1.00  0.00    -0.248 OA
HETATM   14  H   LIG     1      18.478  34.776  27.040  1.00  0.00     0.160 HD
HETATM   15  H   LIG     1      18.773  36.548  26.940  1.00  0.00     0.160 HD
HETATM   16  H   LIG     1      17.794  37.853  25.101  1.00  0.00     0.166 HD
ENDBRANCH   1  10
TORSDOF 1
ENDMDL
MODEL 7
REMARK VINA RESULT:      -5.3      8.098      9.225
REMARK  1 active torsions:
REMARK  status: ('A' for Active; 'I' for Inactive)
REMARK       I    between atoms: N_1  and  C_2 
REMARK       I    between atoms: C_2  and  N_3 
REMARK    1  A    between atoms: N_3  and  C_4 
ROOT
HETATM    1  C   LIG     1      16.344  31.956  15.229  1.00  0.00     0.284 A 
HETATM    2  C   LIG     1      16.327  31.838  13.731  1.00  0.00     0.268 A 
HETATM    3  N   LIG     1      16.837  32.997  13.090  1.00  0.00    -0.276 N 
HETATM    4  O   LIG     1      15.925  30.827  13.100  1.00  0.00    -0.269 OA
HETATM    5  N   LIG     1      16.923  33.282  15.437  1.00  0.00    -0.313 N 
HETATM    6  C   LIG     1      17.191  33.849  14.162  1.00  0.00     0.324 A 
HETATM    7  O   LIG     1      17.697  34.990  14.003  1.00  0.00    -0.247 OA
HETATM    8  H   LIG     1      16.945  33.172  12.066  1.00  0.00     0.173 HD
HETATM    9  H   LIG     1      17.129  33.728  16.358  1.00  0.00     0.166 HD
ENDROOT
BRANCH   1  10
HETATM   10  N   LIG     1      14.990  31.901  15.782  1.00  0.00    -0.314 N 
HETATM   11  C   LIG     1      14.718  32.228  17.150  1.00  0.00     0.315 C 
HETATM   12  N   LIG     1      13.381  32.168  17.646  1.00  0.00    -0.352 N 
HETATM   13  O   LIG     1      15.653  32.566  17.924  1.00  0.00    -0.248 OA
HETATM   14  H   LIG     1      13.178  32.404  18.643  1.00  0.00     0.160 HD
HETATM   15  H   LIG     1      12.594  31.890  17.020  1.00  0.00     0.160 HD
HETATM   16  H   LIG     1      14.195  31.589  15.179  1.00  0.00     0.166 HD
ENDBRANCH   1  10
TORSDOF 1
ENDMDL
MODEL 8
REMARK VINA RESULT:      -5.3      7.670      9.387
REMARK  1 active torsions:
REMARK  status: ('A' for Active; 'I' for Inactive)
REMARK       I    between atoms: N_1  and  C_2 
REMARK       I    between atoms: C_2  and  N_3 
REMARK    1  A    between atoms: N_3  and  C_4 
ROOT
HETATM    1  C   LIG     1      15.684  32.263  15.886  1.00  0.00     0.284 A 
HETATM    2  C   LIG     1      15.179  33.473  16.621  1.00  0.00     0.268 A 
HETATM    3  N   LIG     1      13.869  33.287  17.136  1.00  0.00    -0.276 N 
HETATM    4  O   LIG     1      15.835  34.534  16.785  1.00  0.00    -0.269 OA
HETATM    5  N   LIG     1      14.571  31.324  16.015  1.00  0.00    -0.313 N 
HETATM    6  C   LIG     1      13.538  31.967  16.749  1.00  0.00     0.324 A 
HETATM    7  O   LIG     1      12.442  31.417  17.031  1.00  0.00    -0.247 OA
HETATM    8  H   LIG     1      13.293  33.959  17.689  1.00  0.00     0.173 HD
HETATM    9  H   LIG     1      14.545  30.345  15.657  1.00  0.00     0.166 HD
ENDROOT
BRANCH   1  10
HETATM   10  N   LIG     1      15.934  32.564  14.476  1.00  0.00    -0.314 N 
HETATM   11  C   LIG     1      17.246  32.871  13.989  1.00  0.00     0.315 C 
HETATM   12  N   LIG     1      17.445  33.150  12.604  1.00  0.00    -0.352 N 
HETATM   13  O   LIG     1      18.229  32.899  14.776  1.00  0.00    -0.248 OA
HETATM   14  H   LIG     1      18.399  33.376  12.244  1.00  0.00     0.160 HD
HETATM   15  H   LIG     1      16.643  33.131  11.937  1.00  0.00     0.160 HD
HETATM   16  H   LIG     1      15.136  32.585  13.800  1.00  0.00     0.166 HD
ENDBRANCH   1  10
TORSDOF 1
ENDMDL
MODEL 9
REMARK VINA RESULT:      -5.2      2.274      3.177
REMARK  1 active torsions:
REMARK  status: ('A' for Active; 'I' for Inactive)
REMARK       I    between atoms: N_1  and  C_2 
REMARK       I    between atoms: C_2  and  N_3 
REMARK    1  A    between atoms: N_3  and  C_4 
ROOT
HETATM    1  C   LIG     1      17.055  36.407  21.737  1.00  0.00     0.284 A 
HETATM    2  C   LIG     1      15.565  36.563  21.861  1.00  0.00     0.268 A 
HETATM    3  N   LIG     1      14.855  35.672  21.014  1.00  0.00    -0.276 N 
HETATM    4  O   LIG     1      14.994  37.374  22.635  1.00  0.00    -0.269 OA
HETATM    5  N   LIG     1      17.182  35.335  20.752  1.00  0.00    -0.313 N 
HETATM    6  C   LIG     1      15.874  34.942  20.361  1.00  0.00     0.324 A 
HETATM    7  O   LIG     1      15.646  34.032  19.521  1.00  0.00    -0.247 OA
HETATM    8  H   LIG     1      13.821  35.567  20.912  1.00  0.00     0.173 HD
HETATM    9  H   LIG     1      18.073  34.911  20.413  1.00  0.00     0.166 HD
ENDROOT
BRANCH   1  10
HETATM   10  N   LIG     1      17.677  37.633  21.236  1.00  0.00    -0.314 N 
HETATM   11  C   LIG     1      18.190  38.638  22.120  1.00  0.00     0.315 C 
HETATM   12  N   LIG     1      18.796  39.815  21.588  1.00  0.00    -0.352 N 
HETATM   13  O   LIG     1      18.107  38.491  23.369  1.00  0.00    -0.248 OA
HETATM   14  H   LIG     1      19.170  40.550  22.227  1.00  0.00     0.160 HD
HETATM   15  H   LIG     1      18.873  39.953  20.556  1.00  0.00     0.160 HD
HETATM   16  H   LIG     1      17.730  37.805  20.206  1.00  0.00     0.166 HD
ENDBRANCH   1  10
TORSDOF 1
ENDMDL
MODEL 10
REMARK VINA RESULT:      -5.1      1.627      3.906
REMARK  1 active torsions:
REMARK  status: ('A' for Active; 'I' for Inactive)
REMARK       I    between atoms: N_1  and  C_2 
REMARK       I    between atoms: C_2  and  N_3 
REMARK    1  A    between atoms: N_3  and  C_4 
ROOT
HETATM    1  C   LIG     1      17.035  37.176  21.709  1.00  0.00     0.284 A 
HETATM    2  C   LIG     1      16.817  35.693  21.821  1.00  0.00     0.268 A 
HETATM    3  N   LIG     1      16.936  35.226  23.156  1.00  0.00    -0.276 N 
HETATM    4  O   LIG     1      16.541  34.937  20.853  1.00  0.00    -0.269 OA
HETATM    5  N   LIG     1      17.283  37.565  23.096  1.00  0.00    -0.313 N 
HETATM    6  C   LIG     1      17.216  36.395  23.900  1.00  0.00     0.324 A 
HETATM    7  O   LIG     1      17.385  36.401  25.147  1.00  0.00    -0.247 OA
HETATM    8  H   LIG     1      16.823  34.250  23.510  1.00  0.00     0.173 HD
HETATM    9  H   LIG     1      17.453  38.535  23.444  1.00  0.00     0.166 HD
ENDROOT
BRANCH   1  10
HETATM   10  N   LIG     1      18.202  37.479  20.880  1.00  0.00    -0.314 N 
HETATM   11  C   LIG     1      18.826  38.769  20.897  1.00  0.00     0.315 C 
HETATM   12  N   LIG     1      19.968  39.020  20.078  1.00  0.00    -0.352 N 
HETATM   13  O   LIG     1      18.372  39.689  21.629  1.00  0.00    -0.248 OA
HETATM   14  H   LIG     1      20.425  39.959  20.085  1.00  0.00     0.160 HD
HETATM   15  H   LIG     1      20.358  38.271  19.466  1.00  0.00     0.160 HD
HETATM   16  H   LIG     1      18.584  36.752  20.234  1.00  0.00     0.166 HD
ENDBRANCH   1  10
TORSDOF 1
ENDMDL
MODEL 11
REMARK VINA RESULT:      -5.1     10.394     11.682
REMARK  1 active torsions:
REMARK  status: ('A' for Active; 'I' for Inactive)
REMARK       I    between atoms: N_1  and  C_2 
REMARK       I    between atoms: C_2  and  N_3 
REMARK    1  A    between atoms: N_3  and  C_4 
ROOT
HETATM    1  C   LIG     1      15.001  29.984  14.433  1.00  0.00     0.284 A 
HETATM    2  C   LIG     1      13.804  30.413  15.236  1.00  0.00     0.268 A 
HETATM    3  N   LIG     1      12.683  29.567  15.031  1.00  0.00    -0.276 N 
HETATM    4  O   LIG     1      13.786  31.397  16.019  1.00  0.00    -0.269 OA
HETATM    5  N   LIG     1      14.508  28.797  13.737  1.00  0.00    -0.313 N 
HETATM    6  C   LIG     1      13.153  28.597  14.116  1.00  0.00     0.324 A 
HETATM    7  O   LIG     1      12.446  27.648  13.686  1.00  0.00    -0.247 OA
HETATM    8  H   LIG     1      11.737  29.633  15.469  1.00  0.00     0.173 HD
HETATM    9  H   LIG     1      15.058  28.186  13.094  1.00  0.00     0.166 HD
ENDROOT
BRANCH   1  10
HETATM   10  N   LIG     1      15.389  31.014  13.469  1.00  0.00    -0.314 N 
HETATM   11  C   LIG     1      16.405  31.981  13.763  1.00  0.00     0.315 C 
HETATM   12  N   LIG     1      16.759  32.963  12.790  1.00  0.00    -0.352 N 
HETATM   13  O   LIG     1      16.989  31.974  14.879  1.00  0.00    -0.248 OA
HETATM   14  H   LIG     1      17.497  33.671  13.000  1.00  0.00     0.160 HD
HETATM   15  H   LIG     1      16.286  32.984  11.860  1.00  0.00     0.160 HD
HETATM   16  H   LIG     1      14.901  31.073  12.546  1.00  0.00     0.166 HD
ENDBRANCH   1  10
TORSDOF 1
ENDMDL
MODEL 12
REMARK VINA RESULT:      -5.0     12.547     14.837
REMARK  1 active torsions:
REMARK  status: ('A' for Active; 'I' for Inactive)
REMARK       I    between atoms: N_1  and  C_2 
REMARK       I    between atoms: C_2  and  N_3 
REMARK    1  A    between atoms: N_3  and  C_4 
ROOT
HETATM    1  C   LIG     1      13.534  27.008  13.542  1.00  0.00     0.284 A 
HETATM    2  C   LIG     1      14.869  27.695  13.475  1.00  0.00     0.268 A 
HETATM    3  N   LIG     1      14.804  29.048  13.901  1.00  0.00    -0.276 N 
HETATM    4  O   LIG     1      15.937  27.145  13.102  1.00  0.00    -0.269 OA
HETATM    5  N   LIG     1      12.660  28.060  14.060  1.00  0.00    -0.313 N 
HETATM    6  C   LIG     1      13.446  29.228  14.251  1.00  0.00     0.324 A 
HETATM    7  O   LIG     1      12.981  30.311  14.692  1.00  0.00    -0.247 OA
HETATM    8  H   LIG     1      15.582  29.742  13.963  1.00  0.00     0.173 HD
HETATM    9  H   LIG     1      11.644  27.966  14.277  1.00  0.00     0.166 HD
ENDROOT
BRANCH   1  10
HETATM   10  N   LIG     1      13.087  26.585  12.214  1.00  0.00    -0.314 N 
HETATM   11  C   LIG     1      11.826  25.935  12.012  1.00  0.00     0.315 C 
HETATM   12  N   LIG     1      11.426  25.547  10.698  1.00  0.00    -0.352 N 
HETATM   13  O   LIG     1      11.065  25.700  12.988  1.00  0.00    -0.248 OA
HETATM   14  H   LIG     1      10.509  25.072  10.545  1.00  0.00     0.160 HD
HETATM   15  H   LIG     1      12.044  25.734   9.878  1.00  0.00     0.160 HD
HETATM   16  H   LIG     1      13.708  26.732  11.386  1.00  0.00     0.166 HD
ENDBRANCH   1  10
TORSDOF 1
ENDMDL
MODEL 13
REMARK VINA RESULT:      -4.8      8.771     10.581
REMARK  1 active torsions:
REMARK  status: ('A' for Active; 'I' for Inactive)
REMARK       I    between atoms: N_1  and  C_2 
REMARK       I    between atoms: C_2  and  N_3 
REMARK    1  A    between atoms: N_3  and  C_4 
ROOT
HETATM    1  C   LIG     1      15.995  32.318  13.906  1.00  0.00     0.284 A 
HETATM    2  C   LIG     1      16.711  32.605  15.196  1.00  0.00     0.268 A 
HETATM    3  N   LIG     1      17.879  33.389  15.006  1.00  0.00    -0.276 N 
HETATM    4  O   LIG     1      16.324  32.216  16.329  1.00  0.00    -0.269 OA
HETATM    5  N   LIG     1      16.826  33.010  12.922  1.00  0.00    -0.313 N 
HETATM    6  C   LIG     1      17.911  33.616  13.611  1.00  0.00     0.324 A 
HETATM    7  O   LIG     1      18.806  34.290  13.038  1.00  0.00    -0.247 OA
HETATM    8  H   LIG     1      18.548  33.735  15.730  1.00  0.00     0.173 HD
HETATM    9  H   LIG     1      16.644  33.072  11.896  1.00  0.00     0.166 HD
ENDROOT
BRANCH   1  10
HETATM   10  N   LIG     1      15.964  30.882  13.625  1.00  0.00    -0.314 N 
HETATM   11  C   LIG     1      14.882  30.050  14.061  1.00  0.00     0.315 C 
HETATM   12  N   LIG     1      14.887  28.656  13.757  1.00  0.00    -0.352 N 
HETATM   13  O   LIG     1      13.923  30.540  14.715  1.00  0.00    -0.248 OA
HETATM   14  H   LIG     1      14.102  28.044  14.074  1.00  0.00     0.160 HD
HETATM   15  H   LIG     1      15.673  28.233  13.216  1.00  0.00     0.160 HD
HETATM   16  H   LIG     1      16.759  30.435  13.115  1.00  0.00     0.166 HD
ENDBRANCH   1  10
TORSDOF 1
ENDMDL
MODEL 14
REMARK VINA RESULT:      -4.8      1.927      4.211
REMARK  1 active torsions:
REMARK  status: ('A' for Active; 'I' for Inactive)
REMARK       I    between atoms: N_1  and  C_2 
REMARK       I    between atoms: C_2  and  N_3 
REMARK    1  A    between atoms: N_3  and  C_4 
ROOT
HETATM    1  C   LIG     1      16.338  37.037  22.975  1.00  0.00     0.284 A 
HETATM    2  C   LIG     1      17.270  37.216  24.140  1.00  0.00     0.268 A 
HETATM    3  N   LIG     1      18.222  38.245  23.920  1.00  0.00    -0.276 N 
HETATM    4  O   LIG     1      17.215  36.550  25.206  1.00  0.00    -0.269 OA
HETATM    5  N   LIG     1      16.803  38.058  22.036  1.00  0.00    -0.313 N 
HETATM    6  C   LIG     1      17.902  38.733  22.632  1.00  0.00     0.324 A 
HETATM    7  O   LIG     1      18.523  39.673  22.072  1.00  0.00    -0.247 OA
HETATM    8  H   LIG     1      18.972  38.579  24.566  1.00  0.00     0.173 HD
HETATM    9  H   LIG     1      16.387  38.274  21.104  1.00  0.00     0.166 HD
ENDROOT
BRANCH   1  10
HETATM   10  N   LIG     1      16.477  35.705  22.384  1.00  0.00    -0.314 N 
HETATM   11  C   LIG     1      15.559  35.216  21.398  1.00  0.00     0.315 C 
HETATM   12  N   LIG     1      15.736  33.913  20.843  1.00  0.00    -0.352 N 
HETATM   13  O   LIG     1      14.591  35.927  21.018  1.00  0.00    -0.248 OA
HETATM   14  H   LIG     1      15.069  33.551  20.126  1.00  0.00     0.160 HD
HETATM   15  H   LIG     1      16.532  33.310  21.147  1.00  0.00     0.160 HD
HETATM   16  H   LIG     1      17.247  35.073  22.702  1.00  0.00     0.166 HD
ENDBRANCH   1  10
TORSDOF 1
ENDMDL
MODEL 15
REMARK VINA RESULT:      -4.5      6.527      8.053
REMARK  1 active torsions:
REMARK  status: ('A' for Active; 'I' for Inactive)
REMARK       I    between atoms: N_1  and  C_2 
REMARK       I    between atoms: C_2  and  N_3 
REMARK    1  A    between atoms: N_3  and  C_4 
ROOT
HETATM    1  C   LIG     1      15.576  31.959  17.450  1.00  0.00     0.284 A 
HETATM    2  C   LIG     1      14.371  31.458  16.705  1.00  0.00     0.268 A 
HETATM    3  N   LIG     1      14.422  31.766  15.321  1.00  0.00    -0.276 N 
HETATM    4  O   LIG     1      13.422  30.820  17.231  1.00  0.00    -0.269 OA
HETATM    5  N   LIG     1      16.367  32.584  16.391  1.00  0.00    -0.313 N 
HETATM    6  C   LIG     1      15.652  32.447  15.171  1.00  0.00     0.324 A 
HETATM    7  O   LIG     1      16.074  32.883  14.068  1.00  0.00    -0.247 OA
HETATM    8  H   LIG     1      13.725  31.526  14.581  1.00  0.00     0.173 HD
HETATM    9  H   LIG     1      17.303  33.031  16.502  1.00  0.00     0.166 HD
ENDROOT
BRANCH   1  10
HETATM   10  N   LIG     1      15.202  32.952  18.458  1.00  0.00    -0.314 N 
HETATM   11  C   LIG     1      15.010  32.599  19.833  1.00  0.00     0.315 C 
HETATM   12  N   LIG     1      14.654  33.601  20.785  1.00  0.00    -0.352 N 
HETATM   13  O   LIG     1      15.152  31.405  20.211  1.00  0.00    -0.248 OA
HETATM   14  H   LIG     1      14.511  33.348  21.788  1.00  0.00     0.160 HD
HETATM   15  H   LIG     1      14.532  34.595  20.490  1.00  0.00     0.160 HD
HETATM   16  H   LIG     1      15.041  33.946  18.174  1.00  0.00     0.166 HD
ENDBRANCH   1  10
TORSDOF 1
ENDMDL
MODEL 16
REMARK VINA RESULT:      -4.4      7.369      9.467
REMARK  1 active torsions:
REMARK  status: ('A' for Active; 'I' for Inactive)
REMARK       I    between atoms: N_1  and  C_2 
REMARK       I    between atoms: C_2  and  N_3 
REMARK    1  A    between atoms: N_3  and  C_4 
ROOT
HETATM    1  C   LIG     1      15.663  31.636  15.955  1.00  0.00     0.284 A 
HETATM    2  C   LIG     1      16.537  32.558  15.151  1.00  0.00     0.268 A 
HETATM    3  N   LIG     1      16.510  33.891  15.638  1.00  0.00    -0.276 N 
HETATM    4  O   LIG     1      17.233  32.203  14.165  1.00  0.00    -0.269 OA
HETATM    5  N   LIG     1      15.119  32.526  16.979  1.00  0.00    -0.313 N 
HETATM    6  C   LIG     1      15.640  33.828  16.751  1.00  0.00     0.324 A 
HETATM    7  O   LIG     1      15.359  34.822  17.470  1.00  0.00    -0.247 OA
HETATM    8  H   LIG     1      17.029  34.721  15.273  1.00  0.00     0.173 HD
HETATM    9  H   LIG     1      14.480  32.252  17.758  1.00  0.00     0.166 HD
ENDROOT
BRANCH   1  10
HETATM   10  N   LIG     1      14.583  31.081  15.138  1.00  0.00    -0.314 N 
HETATM   11  C   LIG     1      13.428  30.471  15.725  1.00  0.00     0.315 C 
HETATM   12  N   LIG     1      12.394  29.950  14.891  1.00  0.00    -0.352 N 
HETATM   13  O   LIG     1      13.317  30.387  16.978  1.00  0.00    -0.248 OA
HETATM   14  H   LIG     1      11.551  29.502  15.313  1.00  0.00     0.160 HD
HETATM   15  H   LIG     1      12.469  30.010  13.852  1.00  0.00     0.160 HD
HETATM   16  H   LIG     1      14.658  31.101  14.095  1.00  0.00     0.166 HD
ENDBRANCH   1  10
TORSDOF 1
ENDMDL
MODEL 17
REMARK VINA RESULT:      -4.4      6.673      8.293
REMARK  1 active torsions:
REMARK  status: ('A' for Active; 'I' for Inactive)
REMARK       I    between atoms: N_1  and  C_2 
REMARK       I    between atoms: C_2  and  N_3 
REMARK    1  A    between atoms: N_3  and  C_4 
ROOT
HETATM    1  C   LIG     1      14.647  32.434  16.525  1.00  0.00     0.284 A 
HETATM    2  C   LIG     1      15.840  32.252  15.630  1.00  0.00     0.268 A 
HETATM    3  N   LIG     1      15.695  31.146  14.752  1.00  0.00    -0.276 N 
HETATM    4  O   LIG     1      16.854  32.997  15.632  1.00  0.00    -0.269 OA
HETATM    5  N   LIG     1      13.763  31.349  16.102  1.00  0.00    -0.313 N 
HETATM    6  C   LIG     1      14.419  30.627  15.069  1.00  0.00     0.324 A 
HETATM    7  O   LIG     1      13.912  29.630  14.491  1.00  0.00    -0.247 OA
HETATM    8  H   LIG     1      16.366  30.807  14.027  1.00  0.00     0.173 HD
HETATM    9  H   LIG     1      12.807  31.152  16.472  1.00  0.00     0.166 HD
ENDROOT
BRANCH   1  10
HETATM   10  N   LIG     1      15.011  32.272  17.934  1.00  0.00    -0.314 N 
HETATM   11  C   LIG     1      15.411  33.384  18.744  1.00  0.00     0.315 C 
HETATM   12  N   LIG     1      15.750  33.182  20.115  1.00  0.00    -0.352 N 
HETATM   13  O   LIG     1      15.469  34.543  18.254  1.00  0.00    -0.248 OA
HETATM   14  H   LIG     1      16.044  33.988  20.710  1.00  0.00     0.160 HD
HETATM   15  H   LIG     1      15.708  32.229  20.538  1.00  0.00     0.160 HD
HETATM   16  H   LIG     1      15.009  31.319  18.365  1.00  0.00     0.166 HD
ENDBRANCH   1  10
TORSDOF 1
ENDMDL
MODEL 18
REMARK VINA RESULT:      -4.4     10.072     12.367
REMARK  1 active torsions:
REMARK  status: ('A' for Active; 'I' for Inactive)
REMARK       I    between atoms: N_1  and  C_2 
REMARK       I    between atoms: C_2  and  N_3 
REMARK    1  A    between atoms: N_3  and  C_4 
ROOT
HETATM    1  C   LIG     1      13.556  29.454  14.922  1.00  0.00     0.284 A 
HETATM    2  C   LIG     1      14.601  30.469  14.554  1.00  0.00     0.268 A 
HETATM    3  N   LIG     1      14.667  31.541  15.482  1.00  0.00    -0.276 N 
HETATM    4  O   LIG     1      15.355  30.385  13.549  1.00  0.00    -0.269 OA
HETATM    5  N   LIG     1      13.005  30.001  16.161  1.00  0.00    -0.313 N 
HETATM    6  C   LIG     1      13.683  31.216  16.444  1.00  0.00     0.324 A 
HETATM    7  O   LIG     1      13.437  31.929  17.452  1.00  0.00    -0.247 OA
HETATM    8  H   LIG     1      15.307  32.367  15.468  1.00  0.00     0.173 HD
HETATM    9  H   LIG     1      12.263  29.565  16.751  1.00  0.00     0.166 HD
ENDROOT
BRANCH   1  10
HETATM   10  N   LIG     1      12.514  29.370  13.897  1.00  0.00    -0.314 N 
HETATM   11  C   LIG     1      12.056  28.112  13.386  1.00  0.00     0.315 C 
HETATM   12  N   LIG     1      11.032  28.076  12.393  1.00  0.00    -0.352 N 
HETATM   13  O   LIG     1      12.554  27.033  13.805  1.00  0.00    -0.248 OA
HETATM   14  H   LIG     1      10.696  27.162  12.015  1.00  0.00     0.160 HD
HETATM   15  H   LIG     1      10.608  28.960  12.034  1.00  0.00     0.160 HD
HETATM   16  H   LIG     1      12.103  30.246  13.500  1.00  0.00     0.166 HD
ENDBRANCH   1  10
TORSDOF 1
ENDMDL
MODEL 19
REMARK VINA RESULT:      -4.2      7.556      9.542
REMARK  1 active torsions:
REMARK  status: ('A' for Active; 'I' for Inactive)
REMARK       I    between atoms: N_1  and  C_2 
REMARK       I    between atoms: C_2  and  N_3 
REMARK    1  A    between atoms: N_3  and  C_4 
ROOT
HETATM    1  C   LIG     1      14.917  31.270  16.256  1.00  0.00     0.284 A 
HETATM    2  C   LIG     1      13.634  30.632  15.803  1.00  0.00     0.268 A 
HETATM    3  N   LIG     1      13.750  30.032  14.522  1.00  0.00    -0.276 N 
HETATM    4  O   LIG     1      12.572  30.609  16.476  1.00  0.00    -0.269 OA
HETATM    5  N   LIG     1      15.822  30.990  15.143  1.00  0.00    -0.313 N 
HETATM    6  C   LIG     1      15.096  30.268  14.158  1.00  0.00     0.324 A 
HETATM    7  O   LIG     1      15.600  29.875  13.073  1.00  0.00    -0.247 OA
HETATM    8  H   LIG     1      13.018  29.517  13.983  1.00  0.00     0.173 HD
HETATM    9  H   LIG     1      16.832  31.249  15.088  1.00  0.00     0.166 HD
ENDROOT
BRANCH   1  10
HETATM   10  N   LIG     1      14.759  32.715  16.430  1.00  0.00    -0.314 N 
HETATM   11  C   LIG     1      15.117  33.373  17.652  1.00  0.00     0.315 C 
HETATM   12  N   LIG     1      14.954  34.785  17.775  1.00  0.00    -0.352 N 
HETATM   13  O   LIG     1      15.574  32.712  18.622  1.00  0.00    -0.248 OA
HETATM   14  H   LIG     1      15.212  35.269  18.664  1.00  0.00     0.160 HD
HETATM   15  H   LIG     1      14.577  35.348  16.982  1.00  0.00     0.160 HD
HETATM   16  H   LIG     1      14.350  33.290  15.658  1.00  0.00     0.166 HD
ENDBRANCH   1  10
TORSDOF 1
ENDMDL
MODEL 20
REMARK VINA RESULT:      -4.1     12.344     14.478
REMARK  1 active torsions:
REMARK  status: ('A' for Active; 'I' for Inactive)
REMARK       I    between atoms: N_1  and  C_2 
REMARK       I    between atoms: C_2  and  N_3 
REMARK    1  A    between atoms: N_3  and  C_4 
ROOT
HETATM    1  C   LIG     1      13.843  27.205  13.427  1.00  0.00     0.284 A 
HETATM    2  C   LIG     1      12.622  26.672  12.731  1.00  0.00     0.268 A 
HETATM    3  N   LIG     1      12.911  26.177  11.432  1.00  0.00    -0.276 N 
HETATM    4  O   LIG     1      11.469  26.644  13.234  1.00  0.00    -0.269 OA
HETATM    5  N   LIG     1      14.897  26.976  12.440  1.00  0.00    -0.313 N 
HETATM    6  C   LIG     1      14.304  26.377  11.296  1.00  0.00     0.324 A 
HETATM    7  O   LIG     1      14.954  26.052  10.268  1.00  0.00    -0.247 OA
HETATM    8  H   LIG     1      12.252  25.746  10.746  1.00  0.00     0.173 HD
HETATM    9  H   LIG     1      15.911  27.188  12.561  1.00  0.00     0.166 HD
ENDROOT
BRANCH   1  10
HETATM   10  N   LIG     1      13.712  28.636  13.706  1.00  0.00    -0.314 N 
HETATM   11  C   LIG     1      14.825  29.426  14.142  1.00  0.00     0.315 C 
HETATM   12  N   LIG     1      14.655  30.820  14.395  1.00  0.00    -0.352 N 
HETATM   13  O   LIG     1      15.957  28.898  14.307  1.00  0.00    -0.248 OA
HETATM   14  H   LIG     1      15.463  31.400  14.715  1.00  0.00     0.160 HD
HETATM   15  H   LIG     1      13.725  31.274  14.264  1.00  0.00     0.160 HD
HETATM   16  H   LIG     1      12.780  29.101  13.614  1.00  0.00     0.166 HD
ENDBRANCH   1  10
TORSDOF 1
ENDMDL
