REMARK  1 active torsions:
REMARK  status: ('A' for Active; 'I' for Inactive)
REMARK       I    between atoms: N_1  and  C_2 
REMARK       I    between atoms: C_2  and  N_3 
REMARK    1  A    between atoms: N_3  and  C_4 
ROOT
HETATM    1  C   LIG     1      -0.351  -0.230  -0.680  1.00  0.00     0.284 A 
HETATM    2  C   LIG     1      -1.416  -1.224  -0.311  1.00  0.00     0.268 A 
HETATM    3  N   LIG     1      -2.592  -0.601   0.183  1.00  0.00    -0.276 N 
HETATM    4  O   LIG     1      -1.302  -2.471  -0.435  1.00  0.00    -0.269 OA
HETATM    5  N   LIG     1      -0.992   1.049  -0.379  1.00  0.00    -0.313 N 
HETATM    6  C   LIG     1      -2.294   0.780   0.122  1.00  0.00     0.324 A 
HETATM    7  O   LIG     1      -3.102   1.680   0.471  1.00  0.00    -0.247 OA
HETATM    8  H   LIG     1      -3.478  -1.055   0.498  1.00  0.00     0.173 HD
HETATM    9  H   LIG     1      -0.580   1.996  -0.529  1.00  0.00     0.166 HD
ENDROOT
BRANCH   1  10
HETATM   10  N   LIG     1       0.846  -0.404   0.144  1.00  0.00    -0.314 N 
HETATM   11  C   LIG     1       2.038   0.358  -0.084  1.00  0.00     0.315 C 
HETATM   12  N   LIG     1       3.180   0.162   0.749  1.00  0.00    -0.352 N 
HETATM   13  O   LIG     1       2.088   1.201  -1.019  1.00  0.00    -0.248 OA
HETATM   14  H   LIG     1       4.052   0.713   0.586  1.00  0.00     0.160 HD
HETATM   15  H   LIG     1       3.157  -0.532   1.528  1.00  0.00     0.160 HD
HETATM   16  H   LIG     1       0.853  -1.120   0.906  1.00  0.00     0.166 HD
ENDBRANCH   1  10
TORSDOF 1
