MODEL 1
REMARK VINA RESULT:      -6.6      0.000      0.000
REMARK  4 active torsions:
REMARK  status: ('A' for Active; 'I' for Inactive)
REMARK    1  A    between atoms: O_1  and  C_2 
REMARK    2  A    between atoms: C_3  and  O_4 
REMARK    3  A    between atoms: C_7  and  C_8 
REMARK    4  A    between atoms: C_8  and  C_9 
ROOT
HETATM    1  C   LIG     1      17.773  36.642  20.578  1.00  0.00     0.099 A 
HETATM    2  C   LIG     1      18.059  37.932  21.091  1.00  0.00     0.101 A 
HETATM    3  C   LIG     1      17.752  38.215  22.429  1.00  0.00     0.047 A 
HETATM    4  C   LIG     1      17.179  37.244  23.262  1.00  0.00    -0.052 A 
HETATM    5  C   LIG     1      16.885  35.977  22.741  1.00  0.00     0.010 A 
HETATM    6  C   LIG     1      17.186  35.678  21.411  1.00  0.00     0.040 A 
ENDROOT
BRANCH   4   7
HETATM    7  C   LIG     1      16.823  37.578  24.686  1.00  0.00     0.065 C 
BRANCH   7   8
HETATM    8  C   LIG     1      18.033  37.481  25.574  1.00  0.00    -0.032 C 
HETATM    9  C   LIG     1      18.281  36.372  26.275  1.00  0.00     0.007 C 
ENDBRANCH   7   8
ENDBRANCH   4   7
BRANCH   2  10
HETATM   10  O   LIG     1      18.640  38.967  20.337  1.00  0.00    -0.353 OA
HETATM   11  C   LIG     1      19.976  39.002  19.848  1.00  0.00     0.210 C 
ENDBRANCH   2  10
BRANCH   1  12
HETATM   12  O   LIG     1      18.061  36.307  19.256  1.00  0.00    -0.358 OA
HETATM   13  H   LIG     1      18.169  35.344  18.961  1.00  0.00     0.217 HD
ENDBRANCH   1  12
TORSDOF 4
ENDMDL
MODEL 2
REMARK VINA RESULT:      -6.6      2.567      5.080
REMARK  4 active torsions:
REMARK  status: ('A' for Active; 'I' for Inactive)
REMARK    1  A    between atoms: O_1  and  C_2 
REMARK    2  A    between atoms: C_3  and  O_4 
REMARK    3  A    between atoms: C_7  and  C_8 
REMARK    4  A    between atoms: C_8  and  C_9 
ROOT
HETATM    1  C   LIG     1      16.304  37.835  22.685  1.00  0.00     0.099 A 
HETATM    2  C   LIG     1      16.518  36.607  22.010  1.00  0.00     0.101 A 
HETATM    3  C   LIG     1      17.501  36.542  21.013  1.00  0.00     0.047 A 
HETATM    4  C   LIG     1      18.275  37.663  20.684  1.00  0.00    -0.052 A 
HETATM    5  C   LIG     1      18.046  38.876  21.346  1.00  0.00     0.010 A 
HETATM    6  C   LIG     1      17.072  38.958  22.343  1.00  0.00     0.040 A 
ENDROOT
BRANCH   4   7
HETATM    7  C   LIG     1      19.302  37.582  19.586  1.00  0.00     0.065 C 
BRANCH   7   8
HETATM    8  C   LIG     1      19.473  38.917  18.917  1.00  0.00    -0.032 C 
HETATM    9  C   LIG     1      18.915  39.165  17.729  1.00  0.00     0.007 C 
ENDBRANCH   7   8
ENDBRANCH   4   7
BRANCH   2  10
HETATM   10  O   LIG     1      15.799  35.428  22.276  1.00  0.00    -0.353 OA
HETATM   11  C   LIG     1      15.208  34.570  21.308  1.00  0.00     0.210 C 
ENDBRANCH   2  10
BRANCH   1  12
HETATM   12  O   LIG     1      15.342  37.955  23.687  1.00  0.00    -0.358 OA
HETATM   13  H   LIG     1      15.103  38.852  24.093  1.00  0.00     0.217 HD
ENDBRANCH   1  12
TORSDOF 4
ENDMDL
MODEL 3
REMARK VINA RESULT:      -6.5      1.055      2.776
REMARK  4 active torsions:
REMARK  status: ('A' for Active; 'I' for Inactive)
REMARK    1  A    between atoms: O_1  and  C_2 
REMARK    2  A    between atoms: C_3  and  O_4 
REMARK    3  A    between atoms: C_7  and  C_8 
REMARK    4  A    between atoms: C_8  and  C_9 
ROOT
HETATM    1  C   LIG     1      17.925  36.834  20.393  1.00  0.00     0.099 A 
HETATM    2  C   LIG     1      17.143  35.909  21.130  1.00  0.00     0.101 A 
HETATM    3  C   LIG     1      16.784  36.221  22.449  1.00  0.00     0.047 A 
HETATM    4  C   LIG     1      17.178  37.429  23.040  1.00  0.00    -0.052 A 
HETATM    5  C   LIG     1      17.963  38.330  22.309  1.00  0.00     0.010 A 
HETATM    6  C   LIG     1      18.328  38.036  20.994  1.00  0.00     0.040 A 
ENDROOT
BRANCH   4   7
HETATM    7  C   LIG     1      16.813  37.730  24.469  1.00  0.00     0.065 C 
BRANCH   7   8
HETATM    8  C   LIG     1      18.010  37.587  25.367  1.00  0.00    -0.032 C 
HETATM    9  C   LIG     1      18.162  36.510  26.140  1.00  0.00     0.007 C 
ENDBRANCH   7   8
ENDBRANCH   4   7
BRANCH   2  10
HETATM   10  O   LIG     1      16.695  34.677  20.621  1.00  0.00    -0.353 OA
HETATM   11  C   LIG     1      15.420  34.088  20.851  1.00  0.00     0.210 C 
ENDBRANCH   2  10
BRANCH   1  12
HETATM   12  O   LIG     1      18.306  36.575  19.078  1.00  0.00    -0.358 OA
HETATM   13  H   LIG     1      18.421  35.630  18.731  1.00  0.00     0.217 HD
ENDBRANCH   1  12
TORSDOF 4
ENDMDL
MODEL 4
REMARK VINA RESULT:      -6.3      7.794     10.064
REMARK  4 active torsions:
REMARK  status: ('A' for Active; 'I' for Inactive)
REMARK    1  A    between atoms: O_1  and  C_2 
REMARK    2  A    between atoms: C_3  and  O_4 
REMARK    3  A    between atoms: C_7  and  C_8 
REMARK    4  A    between atoms: C_8  and  C_9 
ROOT
HETATM    1  C   LIG     1      14.921  32.885  16.992  1.00  0.00     0.099 A 
HETATM    2  C   LIG     1      15.794  32.595  15.913  1.00  0.00     0.101 A 
HETATM    3  C   LIG     1      15.482  31.533  15.053  1.00  0.00     0.047 A 
HETATM    4  C   LIG     1      14.324  30.766  15.239  1.00  0.00    -0.052 A 
HETATM    5  C   LIG     1      13.476  31.051  16.317  1.00  0.00     0.010 A 
HETATM    6  C   LIG     1      13.770  32.106  17.182  1.00  0.00     0.040 A 
ENDROOT
BRANCH   4   7
HETATM    7  C   LIG     1      14.025  29.607  14.326  1.00  0.00     0.065 C 
BRANCH   7   8
HETATM    8  C   LIG     1      15.294  28.926  13.896  1.00  0.00    -0.032 C 
HETATM    9  C   LIG     1      15.302  27.629  13.581  1.00  0.00     0.007 C 
ENDBRANCH   7   8
ENDBRANCH   4   7
BRANCH   2  10
HETATM   10  O   LIG     1      16.973  33.311  15.641  1.00  0.00    -0.353 OA
HETATM   11  C   LIG     1      17.640  33.386  14.386  1.00  0.00     0.210 C 
ENDBRANCH   2  10
BRANCH   1  12
HETATM   12  O   LIG     1      15.182  33.932  17.874  1.00  0.00    -0.358 OA
HETATM   13  H   LIG     1      15.128  34.901  17.584  1.00  0.00     0.217 HD
ENDBRANCH   1  12
TORSDOF 4
ENDMDL
MODEL 5
REMARK VINA RESULT:      -6.3      2.023      4.691
REMARK  4 active torsions:
REMARK  status: ('A' for Active; 'I' for Inactive)
REMARK    1  A    between atoms: O_1  and  C_2 
REMARK    2  A    between atoms: C_3  and  O_4 
REMARK    3  A    between atoms: C_7  and  C_8 
REMARK    4  A    between atoms: C_8  and  C_9 
ROOT
HETATM    1  C   LIG     1      16.968  36.199  22.287  1.00  0.00     0.099 A 
HETATM    2  C   LIG     1      17.055  37.501  22.841  1.00  0.00     0.101 A 
HETATM    3  C   LIG     1      17.731  38.499  22.127  1.00  0.00     0.047 A 
HETATM    4  C   LIG     1      18.309  38.232  20.878  1.00  0.00    -0.052 A 
HETATM    5  C   LIG     1      18.230  36.938  20.346  1.00  0.00     0.010 A 
HETATM    6  C   LIG     1      17.559  35.933  21.043  1.00  0.00     0.040 A 
ENDROOT
BRANCH   4   7
HETATM    7  C   LIG     1      19.062  39.309  20.142  1.00  0.00     0.065 C 
BRANCH   7   8
HETATM    8  C   LIG     1      19.366  38.879  18.735  1.00  0.00    -0.032 C 
HETATM    9  C   LIG     1      18.717  39.416  17.699  1.00  0.00     0.007 C 
ENDBRANCH   7   8
ENDBRANCH   4   7
BRANCH   2  10
HETATM   10  O   LIG     1      16.502  37.866  24.081  1.00  0.00    -0.353 OA
HETATM   11  C   LIG     1      17.184  37.895  25.329  1.00  0.00     0.210 C 
ENDBRANCH   2  10
BRANCH   1  12
HETATM   12  O   LIG     1      16.304  35.170  22.954  1.00  0.00    -0.358 OA
HETATM   13  H   LIG     1      16.764  34.295  23.177  1.00  0.00     0.217 HD
ENDBRANCH   1  12
TORSDOF 4
ENDMDL
MODEL 6
REMARK VINA RESULT:      -6.1      1.783      3.653
REMARK  4 active torsions:
REMARK  status: ('A' for Active; 'I' for Inactive)
REMARK    1  A    between atoms: O_1  and  C_2 
REMARK    2  A    between atoms: C_3  and  O_4 
REMARK    3  A    between atoms: C_7  and  C_8 
REMARK    4  A    between atoms: C_8  and  C_9 
ROOT
HETATM    1  C   LIG     1      18.228  38.783  21.618  1.00  0.00     0.099 A 
HETATM    2  C   LIG     1      18.458  37.891  20.541  1.00  0.00     0.101 A 
HETATM    3  C   LIG     1      17.903  36.604  20.594  1.00  0.00     0.047 A 
HETATM    4  C   LIG     1      17.123  36.196  21.685  1.00  0.00    -0.052 A 
HETATM    5  C   LIG     1      16.914  37.081  22.751  1.00  0.00     0.010 A 
HETATM    6  C   LIG     1      17.458  38.366  22.713  1.00  0.00     0.040 A 
ENDROOT
BRANCH   4   7
HETATM    7  C   LIG     1      16.566  34.799  21.741  1.00  0.00     0.065 C 
BRANCH   7   8
HETATM    8  C   LIG     1      15.707  34.520  20.539  1.00  0.00    -0.032 C 
HETATM    9  C   LIG     1      15.530  33.272  20.098  1.00  0.00     0.007 C 
ENDBRANCH   7   8
ENDBRANCH   4   7
BRANCH   2  10
HETATM   10  O   LIG     1      19.218  38.211  19.403  1.00  0.00    -0.353 OA
HETATM   11  C   LIG     1      20.578  38.629  19.392  1.00  0.00     0.210 C 
ENDBRANCH   2  10
BRANCH   1  12
HETATM   12  O   LIG     1      18.753  40.075  21.614  1.00  0.00    -0.358 OA
HETATM   13  H   LIG     1      19.529  40.334  21.017  1.00  0.00     0.217 HD
ENDBRANCH   1  12
TORSDOF 4
ENDMDL
MODEL 7
REMARK VINA RESULT:      -5.9      7.317      8.936
REMARK  4 active torsions:
REMARK  status: ('A' for Active; 'I' for Inactive)
REMARK    1  A    between atoms: O_1  and  C_2 
REMARK    2  A    between atoms: C_3  and  O_4 
REMARK    3  A    between atoms: C_7  and  C_8 
REMARK    4  A    between atoms: C_8  and  C_9 
ROOT
HETATM    1  C   LIG     1      14.931  30.636  14.333  1.00  0.00     0.099 A 
HETATM    2  C   LIG     1      15.857  31.682  14.571  1.00  0.00     0.101 A 
HETATM    3  C   LIG     1      15.774  32.404  15.770  1.00  0.00     0.047 A 
HETATM    4  C   LIG     1      14.800  32.101  16.732  1.00  0.00    -0.052 A 
HETATM    5  C   LIG     1      13.880  31.075  16.480  1.00  0.00     0.010 A 
HETATM    6  C   LIG     1      13.950  30.345  15.292  1.00  0.00     0.040 A 
ENDROOT
BRANCH   4   7
HETATM    7  C   LIG     1      14.704  32.910  17.998  1.00  0.00     0.065 C 
BRANCH   7   8
HETATM    8  C   LIG     1      15.449  32.239  19.117  1.00  0.00    -0.032 C 
HETATM    9  C   LIG     1      14.815  31.443  19.981  1.00  0.00     0.007 C 
ENDBRANCH   7   8
ENDBRANCH   4   7
BRANCH   2  10
HETATM   10  O   LIG     1      16.873  32.054  13.672  1.00  0.00    -0.353 OA
HETATM   11  C   LIG     1      17.523  33.318  13.617  1.00  0.00     0.210 C 
ENDBRANCH   2  10
BRANCH   1  12
HETATM   12  O   LIG     1      14.972  29.885  13.159  1.00  0.00    -0.358 OA
HETATM   13  H   LIG     1      15.686  30.033  12.455  1.00  0.00     0.217 HD
ENDBRANCH   1  12
TORSDOF 4
ENDMDL
MODEL 8
REMARK VINA RESULT:      -5.8      7.617      9.493
REMARK  4 active torsions:
REMARK  status: ('A' for Active; 'I' for Inactive)
REMARK    1  A    between atoms: O_1  and  C_2 
REMARK    2  A    between atoms: C_3  and  O_4 
REMARK    3  A    between atoms: C_7  and  C_8 
REMARK    4  A    between atoms: C_8  and  C_9 
ROOT
HETATM    1  C   LIG     1      16.263  32.065  14.025  1.00  0.00     0.099 A 
HETATM    2  C   LIG     1      15.376  30.985  14.260  1.00  0.00     0.101 A 
HETATM    3  C   LIG     1      14.649  30.951  15.458  1.00  0.00     0.047 A 
HETATM    4  C   LIG     1      14.781  31.967  16.415  1.00  0.00    -0.052 A 
HETATM    5  C   LIG     1      15.672  33.023  16.179  1.00  0.00     0.010 A 
HETATM    6  C   LIG     1      16.401  33.073  14.991  1.00  0.00     0.040 A 
ENDROOT
BRANCH   4   7
HETATM    7  C   LIG     1      14.019  31.894  17.711  1.00  0.00     0.065 C 
BRANCH   7   8
HETATM    8  C   LIG     1      14.930  32.145  18.880  1.00  0.00    -0.032 C 
HETATM    9  C   LIG     1      14.883  31.368  19.964  1.00  0.00     0.007 C 
ENDBRANCH   7   8
ENDBRANCH   4   7
BRANCH   2  10
HETATM   10  O   LIG     1      15.171  29.925  13.359  1.00  0.00    -0.353 OA
HETATM   11  C   LIG     1      15.292  28.538  13.653  1.00  0.00     0.210 C 
ENDBRANCH   2  10
BRANCH   1  12
HETATM   12  O   LIG     1      17.007  32.150  12.849  1.00  0.00    -0.358 OA
HETATM   13  H   LIG     1      17.059  31.380  12.193  1.00  0.00     0.217 HD
ENDBRANCH   1  12
TORSDOF 4
ENDMDL
MODEL 9
REMARK VINA RESULT:      -5.6      2.248      4.125
REMARK  4 active torsions:
REMARK  status: ('A' for Active; 'I' for Inactive)
REMARK    1  A    between atoms: O_1  and  C_2 
REMARK    2  A    between atoms: C_3  and  O_4 
REMARK    3  A    between atoms: C_7  and  C_8 
REMARK    4  A    between atoms: C_8  and  C_9 
ROOT
HETATM    1  C   LIG     1      17.511  37.227  23.935  1.00  0.00     0.099 A 
HETATM    2  C   LIG     1      17.522  37.866  22.670  1.00  0.00     0.101 A 
HETATM    3  C   LIG     1      17.120  37.142  21.539  1.00  0.00     0.047 A 
HETATM    4  C   LIG     1      16.702  35.808  21.644  1.00  0.00    -0.052 A 
HETATM    5  C   LIG     1      16.709  35.181  22.897  1.00  0.00     0.010 A 
HETATM    6  C   LIG     1      17.104  35.888  24.033  1.00  0.00     0.040 A 
ENDROOT
BRANCH   4   7
HETATM    7  C   LIG     1      16.307  35.037  20.413  1.00  0.00     0.065 C 
BRANCH   7   8
HETATM    8  C   LIG     1      15.474  33.841  20.778  1.00  0.00    -0.032 C 
HETATM    9  C   LIG     1      15.411  32.778  19.972  1.00  0.00     0.007 C 
ENDBRANCH   7   8
ENDBRANCH   4   7
BRANCH   2  10
HETATM   10  O   LIG     1      17.917  39.200  22.467  1.00  0.00    -0.353 OA
HETATM   11  C   LIG     1      18.728  39.682  21.401  1.00  0.00     0.210 C 
ENDBRANCH   2  10
BRANCH   1  12
HETATM   12  O   LIG     1      17.898  37.902  25.092  1.00  0.00    -0.358 OA
HETATM   13  H   LIG     1      17.664  38.875  25.246  1.00  0.00     0.217 HD
ENDBRANCH   1  12
TORSDOF 4
ENDMDL
MODEL 10
REMARK VINA RESULT:      -5.6      7.993     10.439
REMARK  4 active torsions:
REMARK  status: ('A' for Active; 'I' for Inactive)
REMARK    1  A    between atoms: O_1  and  C_2 
REMARK    2  A    between atoms: C_3  and  O_4 
REMARK    3  A    between atoms: C_7  and  C_8 
REMARK    4  A    between atoms: C_8  and  C_9 
ROOT
HETATM    1  C   LIG     1      15.900  33.143  15.627  1.00  0.00     0.099 A 
HETATM    2  C   LIG     1      15.004  32.395  16.431  1.00  0.00     0.101 A 
HETATM    3  C   LIG     1      14.511  31.175  15.946  1.00  0.00     0.047 A 
HETATM    4  C   LIG     1      14.896  30.687  14.689  1.00  0.00    -0.052 A 
HETATM    5  C   LIG     1      15.770  31.442  13.896  1.00  0.00     0.010 A 
HETATM    6  C   LIG     1      16.271  32.657  14.365  1.00  0.00     0.040 A 
ENDROOT
BRANCH   4   7
HETATM    7  C   LIG     1      14.328  29.393  14.170  1.00  0.00     0.065 C 
BRANCH   7   8
HETATM    8  C   LIG     1      15.428  28.428  13.828  1.00  0.00    -0.032 C 
HETATM    9  C   LIG     1      15.179  27.332  13.107  1.00  0.00     0.007 C 
ENDBRANCH   7   8
ENDBRANCH   4   7
BRANCH   2  10
HETATM   10  O   LIG     1      14.567  32.797  17.706  1.00  0.00    -0.353 OA
HETATM   11  C   LIG     1      15.094  32.357  18.952  1.00  0.00     0.210 C 
ENDBRANCH   2  10
BRANCH   1  12
HETATM   12  O   LIG     1      16.422  34.360  16.063  1.00  0.00    -0.358 OA
HETATM   13  H   LIG     1      15.879  35.215  16.034  1.00  0.00     0.217 HD
ENDBRANCH   1  12
TORSDOF 4
ENDMDL
MODEL 11
REMARK VINA RESULT:      -5.6      7.398      9.897
REMARK  4 active torsions:
REMARK  status: ('A' for Active; 'I' for Inactive)
REMARK    1  A    between atoms: O_1  and  C_2 
REMARK    2  A    between atoms: C_3  and  O_4 
REMARK    3  A    between atoms: C_7  and  C_8 
REMARK    4  A    between atoms: C_8  and  C_9 
ROOT
HETATM    1  C   LIG     1      13.691  30.793  16.241  1.00  0.00     0.099 A 
HETATM    2  C   LIG     1      14.394  31.644  17.130  1.00  0.00     0.101 A 
HETATM    3  C   LIG     1      15.536  32.314  16.671  1.00  0.00     0.047 A 
HETATM    4  C   LIG     1      15.985  32.160  15.352  1.00  0.00    -0.052 A 
HETATM    5  C   LIG     1      15.292  31.305  14.485  1.00  0.00     0.010 A 
HETATM    6  C   LIG     1      14.152  30.632  14.926  1.00  0.00     0.040 A 
ENDROOT
BRANCH   4   7
HETATM    7  C   LIG     1      17.234  32.860  14.888  1.00  0.00     0.065 C 
BRANCH   7   8
HETATM    8  C   LIG     1      17.203  33.075  13.401  1.00  0.00    -0.032 C 
HETATM    9  C   LIG     1      18.172  33.759  12.787  1.00  0.00     0.007 C 
ENDBRANCH   7   8
ENDBRANCH   4   7
BRANCH   2  10
HETATM   10  O   LIG     1      14.017  31.867  18.467  1.00  0.00    -0.353 OA
HETATM   11  C   LIG     1      14.864  31.764  19.606  1.00  0.00     0.210 C 
ENDBRANCH   2  10
BRANCH   1  12
HETATM   12  O   LIG     1      12.548  30.106  16.645  1.00  0.00    -0.358 OA
HETATM   13  H   LIG     1      12.406  29.128  16.422  1.00  0.00     0.217 HD
ENDBRANCH   1  12
TORSDOF 4
ENDMDL
MODEL 12
REMARK VINA RESULT:      -5.4      8.653     10.635
REMARK  4 active torsions:
REMARK  status: ('A' for Active; 'I' for Inactive)
REMARK    1  A    between atoms: O_1  and  C_2 
REMARK    2  A    between atoms: C_3  and  O_4 
REMARK    3  A    between atoms: C_7  and  C_8 
REMARK    4  A    between atoms: C_8  and  C_9 
ROOT
HETATM    1  C   LIG     1      15.004  29.890  13.907  1.00  0.00     0.099 A 
HETATM    2  C   LIG     1      13.717  29.674  14.460  1.00  0.00     0.101 A 
HETATM    3  C   LIG     1      13.313  30.442  15.561  1.00  0.00     0.047 A 
HETATM    4  C   LIG     1      14.155  31.419  16.112  1.00  0.00    -0.052 A 
HETATM    5  C   LIG     1      15.431  31.614  15.567  1.00  0.00     0.010 A 
HETATM    6  C   LIG     1      15.848  30.859  14.470  1.00  0.00     0.040 A 
ENDROOT
BRANCH   4   7
HETATM    7  C   LIG     1      13.716  32.208  17.316  1.00  0.00     0.065 C 
BRANCH   7   8
HETATM    8  C   LIG     1      14.862  32.407  18.268  1.00  0.00    -0.032 C 
HETATM    9  C   LIG     1      14.904  31.758  19.434  1.00  0.00     0.007 C 
ENDBRANCH   7   8
ENDBRANCH   4   7
BRANCH   2  10
HETATM   10  O   LIG     1      12.801  28.725  13.973  1.00  0.00    -0.353 OA
HETATM   11  C   LIG     1      13.041  27.332  13.813  1.00  0.00     0.210 C 
ENDBRANCH   2  10
BRANCH   1  12
HETATM   12  O   LIG     1      15.455  29.157  12.811  1.00  0.00    -0.358 OA
HETATM   13  H   LIG     1      15.960  28.285  12.922  1.00  0.00     0.217 HD
ENDBRANCH   1  12
TORSDOF 4
ENDMDL
MODEL 13
REMARK VINA RESULT:      -5.3      8.726     11.071
REMARK  4 active torsions:
REMARK  status: ('A' for Active; 'I' for Inactive)
REMARK    1  A    between atoms: O_1  and  C_2 
REMARK    2  A    between atoms: C_3  and  O_4 
REMARK    3  A    between atoms: C_7  and  C_8 
REMARK    4  A    between atoms: C_8  and  C_9 
ROOT
HETATM    1  C   LIG     1      13.055  31.403  16.480  1.00  0.00     0.099 A 
HETATM    2  C   LIG     1      14.415  31.776  16.342  1.00  0.00     0.101 A 
HETATM    3  C   LIG     1      15.198  31.143  15.367  1.00  0.00     0.047 A 
HETATM    4  C   LIG     1      14.656  30.159  14.528  1.00  0.00    -0.052 A 
HETATM    5  C   LIG     1      13.315  29.787  14.683  1.00  0.00     0.010 A 
HETATM    6  C   LIG     1      12.520  30.408  15.647  1.00  0.00     0.040 A 
ENDROOT
BRANCH   4   7
HETATM    7  C   LIG     1      15.523  29.466  13.512  1.00  0.00     0.065 C 
BRANCH   7   8
HETATM    8  C   LIG     1      15.396  27.973  13.633  1.00  0.00    -0.032 C 
HETATM    9  C   LIG     1      15.641  27.178  12.589  1.00  0.00     0.007 C 
ENDBRANCH   7   8
ENDBRANCH   4   7
BRANCH   2  10
HETATM   10  O   LIG     1      15.045  32.756  17.130  1.00  0.00    -0.353 OA
HETATM   11  C   LIG     1      15.289  32.678  18.530  1.00  0.00     0.210 C 
ENDBRANCH   2  10
BRANCH   1  12
HETATM   12  O   LIG     1      12.230  32.003  17.430  1.00  0.00    -0.358 OA
HETATM   13  H   LIG     1      12.567  32.238  18.357  1.00  0.00     0.217 HD
ENDBRANCH   1  12
TORSDOF 4
ENDMDL
MODEL 14
REMARK VINA RESULT:      -4.9      7.984     10.336
REMARK  4 active torsions:
REMARK  status: ('A' for Active; 'I' for Inactive)
REMARK    1  A    between atoms: O_1  and  C_2 
REMARK    2  A    between atoms: C_3  and  O_4 
REMARK    3  A    between atoms: C_7  and  C_8 
REMARK    4  A    between atoms: C_8  and  C_9 
ROOT
HETATM    1  C   LIG     1      14.491  30.616  14.732  1.00  0.00     0.099 A 
HETATM    2  C   LIG     1      14.744  31.456  15.845  1.00  0.00     0.101 A 
HETATM    3  C   LIG     1      15.730  32.447  15.739  1.00  0.00     0.047 A 
HETATM    4  C   LIG     1      16.457  32.621  14.553  1.00  0.00    -0.052 A 
HETATM    5  C   LIG     1      16.210  31.775  13.463  1.00  0.00     0.010 A 
HETATM    6  C   LIG     1      15.230  30.786  13.552  1.00  0.00     0.040 A 
ENDROOT
BRANCH   4   7
HETATM    7  C   LIG     1      17.537  33.667  14.470  1.00  0.00     0.065 C 
BRANCH   7   8
HETATM    8  C   LIG     1      18.387  33.459  13.248  1.00  0.00    -0.032 C 
HETATM    9  C   LIG     1      18.378  34.345  12.249  1.00  0.00     0.007 C 
ENDBRANCH   7   8
ENDBRANCH   4   7
BRANCH   2  10
HETATM   10  O   LIG     1      14.063  31.363  17.071  1.00  0.00    -0.353 OA
HETATM   11  C   LIG     1      14.481  31.928  18.309  1.00  0.00     0.210 C 
ENDBRANCH   2  10
BRANCH   1  12
HETATM   12  O   LIG     1      13.519  29.618  14.783  1.00  0.00    -0.358 OA
HETATM   13  H   LIG     1      12.699  29.701  15.371  1.00  0.00     0.217 HD
ENDBRANCH   1  12
TORSDOF 4
ENDMDL
MODEL 15
REMARK VINA RESULT:      -4.8      7.372      9.623
REMARK  4 active torsions:
REMARK  status: ('A' for Active; 'I' for Inactive)
REMARK    1  A    between atoms: O_1  and  C_2 
REMARK    2  A    between atoms: C_3  and  O_4 
REMARK    3  A    between atoms: C_7  and  C_8 
REMARK    4  A    between atoms: C_8  and  C_9 
ROOT
HETATM    1  C   LIG     1      16.895  33.712  14.324  1.00  0.00     0.099 A 
HETATM    2  C   LIG     1      16.195  33.444  15.527  1.00  0.00     0.101 A 
HETATM    3  C   LIG     1      15.493  32.237  15.651  1.00  0.00     0.047 A 
HETATM    4  C   LIG     1      15.481  31.296  14.613  1.00  0.00    -0.052 A 
HETATM    5  C   LIG     1      16.163  31.577  13.421  1.00  0.00     0.010 A 
HETATM    6  C   LIG     1      16.869  32.772  13.282  1.00  0.00     0.040 A 
ENDROOT
BRANCH   4   7
HETATM    7  C   LIG     1      14.692  30.021  14.751  1.00  0.00     0.065 C 
BRANCH   7   8
HETATM    8  C   LIG     1      13.251  30.318  15.057  1.00  0.00    -0.032 C 
HETATM    9  C   LIG     1      12.856  30.585  16.304  1.00  0.00     0.007 C 
ENDBRANCH   7   8
ENDBRANCH   4   7
BRANCH   2  10
HETATM   10  O   LIG     1      16.155  34.322  16.625  1.00  0.00    -0.353 OA
HETATM   11  C   LIG     1      15.169  34.338  17.650  1.00  0.00     0.210 C 
ENDBRANCH   2  10
BRANCH   1  12
HETATM   12  O   LIG     1      17.612  34.894  14.149  1.00  0.00    -0.358 OA
HETATM   13  H   LIG     1      18.494  35.058  14.619  1.00  0.00     0.217 HD
ENDBRANCH   1  12
TORSDOF 4
ENDMDL
MODEL 16
REMARK VINA RESULT:      -4.2      2.393      3.524
REMARK  4 active torsions:
REMARK  status: ('A' for Active; 'I' for Inactive)
REMARK    1  A    between atoms: O_1  and  C_2 
REMARK    2  A    between atoms: C_3  and  O_4 
REMARK    3  A    between atoms: C_7  and  C_8 
REMARK    4  A    between atoms: C_8  and  C_9 
ROOT
HETATM    1  C   LIG     1      16.401  38.081  23.183  1.00  0.00     0.099 A 
HETATM    2  C   LIG     1      16.361  36.748  22.703  1.00  0.00     0.101 A 
HETATM    3  C   LIG     1      16.980  35.738  23.452  1.00  0.00     0.047 A 
HETATM    4  C   LIG     1      17.625  36.024  24.663  1.00  0.00    -0.052 A 
HETATM    5  C   LIG     1      17.672  37.348  25.121  1.00  0.00     0.010 A 
HETATM    6  C   LIG     1      17.059  38.366  24.388  1.00  0.00     0.040 A 
ENDROOT
BRANCH   4   7
HETATM    7  C   LIG     1      18.314  34.931  25.434  1.00  0.00     0.065 C 
BRANCH   7   8
HETATM    8  C   LIG     1      17.647  34.714  26.763  1.00  0.00    -0.032 C 
HETATM    9  C   LIG     1      16.400  34.241  26.835  1.00  0.00     0.007 C 
ENDBRANCH   7   8
ENDBRANCH   4   7
BRANCH   2  10
HETATM   10  O   LIG     1      15.732  36.362  21.506  1.00  0.00    -0.353 OA
HETATM   11  C   LIG     1      16.185  35.357  20.607  1.00  0.00     0.210 C 
ENDBRANCH   2  10
BRANCH   1  12
HETATM   12  O   LIG     1      15.799  39.124  22.480  1.00  0.00    -0.358 OA
HETATM   13  H   LIG     1      14.855  39.429  22.683  1.00  0.00     0.217 HD
ENDBRANCH   1  12
TORSDOF 4
ENDMDL
MODEL 17
REMARK VINA RESULT:      -4.1      5.093      7.457
REMARK  4 active torsions:
REMARK  status: ('A' for Active; 'I' for Inactive)
REMARK    1  A    between atoms: O_1  and  C_2 
REMARK    2  A    between atoms: C_3  and  O_4 
REMARK    3  A    between atoms: C_7  and  C_8 
REMARK    4  A    between atoms: C_8  and  C_9 
ROOT
HETATM    1  C   LIG     1      15.124  33.427  20.516  1.00  0.00     0.099 A 
HETATM    2  C   LIG     1      15.499  34.347  19.505  1.00  0.00     0.101 A 
HETATM    3  C   LIG     1      15.437  33.945  18.163  1.00  0.00     0.047 A 
HETATM    4  C   LIG     1      15.003  32.660  17.811  1.00  0.00    -0.052 A 
HETATM    5  C   LIG     1      14.649  31.753  18.818  1.00  0.00     0.010 A 
HETATM    6  C   LIG     1      14.703  32.137  20.159  1.00  0.00     0.040 A 
ENDROOT
BRANCH   4   7
HETATM    7  C   LIG     1      14.977  32.236  16.367  1.00  0.00     0.065 C 
BRANCH   7   8
HETATM    8  C   LIG     1      14.283  30.911  16.213  1.00  0.00    -0.032 C 
HETATM    9  C   LIG     1      13.029  30.843  15.760  1.00  0.00     0.007 C 
ENDBRANCH   7   8
ENDBRANCH   4   7
BRANCH   2  10
HETATM   10  O   LIG     1      15.939  35.658  19.759  1.00  0.00    -0.353 OA
HETATM   11  C   LIG     1      17.141  36.026  20.424  1.00  0.00     0.210 C 
ENDBRANCH   2  10
BRANCH   1  12
HETATM   12  O   LIG     1      15.164  33.775  21.865  1.00  0.00    -0.358 OA
HETATM   13  H   LIG     1      14.640  34.562  22.229  1.00  0.00     0.217 HD
ENDBRANCH   1  12
TORSDOF 4
ENDMDL
MODEL 18
REMARK VINA RESULT:      -4.0      5.770      8.285
REMARK  4 active torsions:
REMARK  status: ('A' for Active; 'I' for Inactive)
REMARK    1  A    between atoms: O_1  and  C_2 
REMARK    2  A    between atoms: C_3  and  O_4 
REMARK    3  A    between atoms: C_7  and  C_8 
REMARK    4  A    between atoms: C_8  and  C_9 
ROOT
HETATM    1  C   LIG     1      14.515  32.015  18.995  1.00  0.00     0.099 A 
HETATM    2  C   LIG     1      15.468  33.024  18.705  1.00  0.00     0.101 A 
HETATM    3  C   LIG     1      15.862  33.225  17.375  1.00  0.00     0.047 A 
HETATM    4  C   LIG     1      15.326  32.453  16.336  1.00  0.00    -0.052 A 
HETATM    5  C   LIG     1      14.396  31.447  16.635  1.00  0.00     0.010 A 
HETATM    6  C   LIG     1      13.991  31.236  17.953  1.00  0.00     0.040 A 
ENDROOT
BRANCH   4   7
HETATM    7  C   LIG     1      15.788  32.659  14.918  1.00  0.00     0.065 C 
BRANCH   7   8
HETATM    8  C   LIG     1      17.277  32.858  14.868  1.00  0.00    -0.032 C 
HETATM    9  C   LIG     1      17.818  33.785  14.073  1.00  0.00     0.007 C 
ENDBRANCH   7   8
ENDBRANCH   4   7
BRANCH   2  10
HETATM   10  O   LIG     1      16.055  33.853  19.677  1.00  0.00    -0.353 OA
HETATM   11  C   LIG     1      15.560  35.113  20.117  1.00  0.00     0.210 C 
ENDBRANCH   2  10
BRANCH   1  12
HETATM   12  O   LIG     1      14.086  31.776  20.300  1.00  0.00    -0.358 OA
HETATM   13  H   LIG     1      13.656  32.502  20.861  1.00  0.00     0.217 HD
ENDBRANCH   1  12
TORSDOF 4
ENDMDL
MODEL 19
REMARK VINA RESULT:      -3.9     16.847     17.347
REMARK  4 active torsions:
REMARK  status: ('A' for Active; 'I' for Inactive)
REMARK    1  A    between atoms: O_1  and  C_2 
REMARK    2  A    between atoms: C_3  and  O_4 
REMARK    3  A    between atoms: C_7  and  C_8 
REMARK    4  A    between atoms: C_8  and  C_9 
ROOT
HETATM    1  C   LIG     1      28.541  29.278  33.090  1.00  0.00     0.099 A 
HETATM    2  C   LIG     1      27.448  28.569  33.648  1.00  0.00     0.101 A 
HETATM    3  C   LIG     1      26.569  29.243  34.508  1.00  0.00     0.047 A 
HETATM    4  C   LIG     1      26.752  30.599  34.814  1.00  0.00    -0.052 A 
HETATM    5  C   LIG     1      27.845  31.286  34.269  1.00  0.00     0.010 A 
HETATM    6  C   LIG     1      28.727  30.631  33.409  1.00  0.00     0.040 A 
ENDROOT
BRANCH   4   7
HETATM    7  C   LIG     1      25.818  31.295  35.767  1.00  0.00     0.065 C 
BRANCH   7   8
HETATM    8  C   LIG     1      26.268  31.104  37.189  1.00  0.00    -0.032 C 
HETATM    9  C   LIG     1      26.933  32.066  37.832  1.00  0.00     0.007 C 
ENDBRANCH   7   8
ENDBRANCH   4   7
BRANCH   2  10
HETATM   10  O   LIG     1      27.178  27.212  33.396  1.00  0.00    -0.353 OA
HETATM   11  C   LIG     1      26.537  26.685  32.240  1.00  0.00     0.210 C 
ENDBRANCH   2  10
BRANCH   1  12
HETATM   12  O   LIG     1      29.443  28.657  32.227  1.00  0.00    -0.358 OA
HETATM   13  H   LIG     1      30.443  28.802  32.304  1.00  0.00     0.217 HD
ENDBRANCH   1  12
TORSDOF 4
ENDMDL
MODEL 20
REMARK VINA RESULT:      -3.7     16.293     17.029
REMARK  4 active torsions:
REMARK  status: ('A' for Active; 'I' for Inactive)
REMARK    1  A    between atoms: O_1  and  C_2 
REMARK    2  A    between atoms: C_3  and  O_4 
REMARK    3  A    between atoms: C_7  and  C_8 
REMARK    4  A    between atoms: C_8  and  C_9 
ROOT
HETATM    1  C   LIG     1      28.300  29.040  33.167  1.00  0.00     0.099 A 
HETATM    2  C   LIG     1      28.594  30.413  33.364  1.00  0.00     0.101 A 
HETATM    3  C   LIG     1      27.786  31.164  34.229  1.00  0.00     0.047 A 
HETATM    4  C   LIG     1      26.705  30.578  34.903  1.00  0.00    -0.052 A 
HETATM    5  C   LIG     1      26.414  29.224  34.689  1.00  0.00     0.010 A 
HETATM    6  C   LIG     1      27.210  28.461  33.833  1.00  0.00     0.040 A 
ENDROOT
BRANCH   4   7
HETATM    7  C   LIG     1      25.827  31.409  35.799  1.00  0.00     0.065 C 
BRANCH   7   8
HETATM    8  C   LIG     1      26.170  31.177  37.244  1.00  0.00    -0.032 C 
HETATM    9  C   LIG     1      26.845  32.093  37.943  1.00  0.00     0.007 C 
ENDBRANCH   7   8
ENDBRANCH   4   7
BRANCH   2  10
HETATM   10  O   LIG     1      29.659  31.087  32.741  1.00  0.00    -0.353 OA
HETATM   11  C   LIG     1      29.545  32.135  31.786  1.00  0.00     0.210 C 
ENDBRANCH   2  10
BRANCH   1  12
HETATM   12  O   LIG     1      29.074  28.247  32.321  1.00  0.00    -0.358 OA
HETATM   13  H   LIG     1      28.677  27.787  31.510  1.00  0.00     0.217 HD
ENDBRANCH   1  12
TORSDOF 4
ENDMDL
