REMARK  9 active torsions:
REMARK  status: ('A' for Active; 'I' for Inactive)
REMARK    1  A    between atoms: C_2  and  N_12 
REMARK    2  A    between atoms: C_2  and  S_3 
REMARK    3  A    between atoms: S_3  and  S_4 
REMARK    4  A    between atoms: S_4  and  C_5 
REMARK    5  A    between atoms: C_5  and  N_6 
REMARK    6  A    between atoms: N_6  and  C_7 
REMARK    7  A    between atoms: N_6  and  C_9 
REMARK    8  A    between atoms: N_12  and  C_13 
REMARK    9  A    between atoms: N_12  and  C_15 
ROOT
HETATM    1  S   LIG     1      -0.179   1.540   0.114  1.00  0.00    -0.020 SA
ENDROOT
BRANCH   1   2
HETATM    2  C   LIG     1      -1.972   1.534  -0.016  1.00  0.00     0.147 C 
HETATM    3  S   LIG     1      -2.653   2.616  -1.045  1.00  0.00    -0.052 SA
BRANCH   2   4
HETATM    4  N   LIG     1      -2.786   0.754   0.891  1.00  0.00    -0.367 N 
BRANCH   4   5
HETATM    5  C   LIG     1      -2.351  -0.584   1.312  1.00  0.00     0.120 C 
HETATM    6  C   LIG     1      -2.796  -1.625   0.292  1.00  0.00     0.026 C 
ENDBRANCH   4   5
BRANCH   4   7
HETATM    7  C   LIG     1      -4.096   1.246   1.349  1.00  0.00     0.120 C 
HETATM    8  C   LIG     1      -3.921   2.400   2.330  1.00  0.00     0.026 C 
ENDBRANCH   4   7
ENDBRANCH   2   4
ENDBRANCH   1   2
BRANCH   1   9
HETATM    9  S   LIG     1       0.098   0.335  -1.626  1.00  0.00    -0.020 SA
BRANCH   9  10
HETATM   10  C   LIG     1       1.242  -0.794  -0.818  1.00  0.00     0.147 C 
HETATM   11  S   LIG     1       0.631  -2.177  -0.181  1.00  0.00    -0.052 SA
BRANCH  10  12
HETATM   12  N   LIG     1       2.672  -0.583  -0.905  1.00  0.00    -0.367 N 
BRANCH  12  13
HETATM   13  C   LIG     1       3.228   0.777  -0.854  1.00  0.00     0.120 C 
HETATM   14  C   LIG     1       3.515   1.178   0.588  1.00  0.00     0.026 C 
ENDBRANCH  12  13
BRANCH  12  15
HETATM   15  C   LIG     1       3.606  -1.720  -0.959  1.00  0.00     0.120 C 
HETATM   16  C   LIG     1       3.520  -2.421  -2.311  1.00  0.00     0.026 C 
ENDBRANCH  12  15
ENDBRANCH  10  12
ENDBRANCH   9  10
ENDBRANCH   1   9
TORSDOF 9
