MODEL 1
REMARK VINA RESULT:      -4.7      0.000      0.000
REMARK  4 active torsions:
REMARK  status: ('A' for Active; 'I' for Inactive)
REMARK    1  A    between atoms: C_2  and  C_3 
REMARK    2  A    between atoms: C_3  and  C_6 
REMARK    3  A    between atoms: C_3  and  C_4 
REMARK    4  A    between atoms: C_4  and  O_5 
ROOT
HETATM    1  C   LIG     1      17.197  36.630  24.994  1.00  0.00     0.008 C 
ENDROOT
BRANCH   1   2
HETATM    2  C   LIG     1      17.159  35.651  23.788  1.00  0.00     0.002 C 
HETATM    3  C   LIG     1      16.829  36.303  22.443  1.00  0.00     0.005 C 
ENDBRANCH   1   2
BRANCH   1   4
HETATM    4  C   LIG     1      18.288  36.290  26.038  1.00  0.00     0.002 C 
HETATM    5  C   LIG     1      18.362  34.798  26.369  1.00  0.00     0.005 C 
ENDBRANCH   1   4
BRANCH   1   6
HETATM    6  C   LIG     1      17.336  38.098  24.549  1.00  0.00     0.168 C 
BRANCH   6   7
HETATM    7  O   LIG     1      17.262  38.954  25.657  1.00  0.00    -0.400 OA
HETATM    8  H   LIG     1      17.816  39.747  25.430  1.00  0.00     0.209 HD
ENDBRANCH   6   7
ENDBRANCH   1   6
TORSDOF 4
ENDMDL
MODEL 2
REMARK VINA RESULT:      -4.6      0.535      2.745
REMARK  4 active torsions:
REMARK  status: ('A' for Active; 'I' for Inactive)
REMARK    1  A    between atoms: C_2  and  C_3 
REMARK    2  A    between atoms: C_3  and  C_6 
REMARK    3  A    between atoms: C_3  and  C_4 
REMARK    4  A    between atoms: C_4  and  O_5 
ROOT
HETATM    1  C   LIG     1      17.733  36.527  24.693  1.00  0.00     0.008 C 
ENDROOT
BRANCH   1   2
HETATM    2  C   LIG     1      18.274  36.267  26.126  1.00  0.00     0.002 C 
HETATM    3  C   LIG     1      18.429  34.789  26.495  1.00  0.00     0.005 C 
ENDBRANCH   1   2
BRANCH   1   4
HETATM    4  C   LIG     1      17.039  35.299  24.056  1.00  0.00     0.002 C 
HETATM    5  C   LIG     1      16.960  35.375  22.531  1.00  0.00     0.005 C 
ENDBRANCH   1   4
BRANCH   1   6
HETATM    6  C   LIG     1      16.795  37.748  24.637  1.00  0.00     0.168 C 
BRANCH   6   7
HETATM    7  O   LIG     1      17.216  38.731  25.544  1.00  0.00    -0.400 OA
HETATM    8  H   LIG     1      17.875  39.291  25.057  1.00  0.00     0.209 HD
ENDBRANCH   6   7
ENDBRANCH   1   6
TORSDOF 4
ENDMDL
MODEL 3
REMARK VINA RESULT:      -4.6      2.676      3.677
REMARK  4 active torsions:
REMARK  status: ('A' for Active; 'I' for Inactive)
REMARK    1  A    between atoms: C_2  and  C_3 
REMARK    2  A    between atoms: C_3  and  C_6 
REMARK    3  A    between atoms: C_3  and  C_4 
REMARK    4  A    between atoms: C_4  and  O_5 
ROOT
HETATM    1  C   LIG     1      17.049  37.908  22.086  1.00  0.00     0.008 C 
ENDROOT
BRANCH   1   2
HETATM    2  C   LIG     1      18.244  38.898  22.127  1.00  0.00     0.002 C 
HETATM    3  C   LIG     1      18.802  39.288  20.755  1.00  0.00     0.005 C 
ENDBRANCH   1   2
BRANCH   1   4
HETATM    4  C   LIG     1      17.362  36.583  21.348  1.00  0.00     0.002 C 
HETATM    5  C   LIG     1      16.965  35.340  22.147  1.00  0.00     0.005 C 
ENDBRANCH   1   4
BRANCH   1   6
HETATM    6  C   LIG     1      16.492  37.607  23.491  1.00  0.00     0.168 C 
BRANCH   6   7
HETATM    7  O   LIG     1      15.175  38.075  23.605  1.00  0.00    -0.400 OA
HETATM    8  H   LIG     1      14.595  37.358  23.239  1.00  0.00     0.209 HD
ENDBRANCH   6   7
ENDBRANCH   1   6
TORSDOF 4
ENDMDL
MODEL 4
REMARK VINA RESULT:      -4.5      2.511      3.707
REMARK  4 active torsions:
REMARK  status: ('A' for Active; 'I' for Inactive)
REMARK    1  A    between atoms: C_2  and  C_3 
REMARK    2  A    between atoms: C_3  and  C_6 
REMARK    3  A    between atoms: C_3  and  C_4 
REMARK    4  A    between atoms: C_4  and  O_5 
ROOT
HETATM    1  C   LIG     1      17.406  37.638  22.660  1.00  0.00     0.008 C 
ENDROOT
BRANCH   1   2
HETATM    2  C   LIG     1      17.050  36.538  21.623  1.00  0.00     0.002 C 
HETATM    3  C   LIG     1      16.860  35.138  22.213  1.00  0.00     0.005 C 
ENDBRANCH   1   2
BRANCH   1   4
HETATM    4  C   LIG     1      17.439  39.067  22.065  1.00  0.00     0.002 C 
HETATM    5  C   LIG     1      18.617  39.299  21.118  1.00  0.00     0.005 C 
ENDBRANCH   1   4
BRANCH   1   6
HETATM    6  C   LIG     1      16.480  37.602  23.891  1.00  0.00     0.168 C 
BRANCH   6   7
HETATM    7  O   LIG     1      15.214  38.108  23.565  1.00  0.00    -0.400 OA
HETATM    8  H   LIG     1      14.903  38.607  24.365  1.00  0.00     0.209 HD
ENDBRANCH   6   7
ENDBRANCH   1   6
TORSDOF 4
ENDMDL
MODEL 5
REMARK VINA RESULT:      -4.3      2.166      3.056
REMARK  4 active torsions:
REMARK  status: ('A' for Active; 'I' for Inactive)
REMARK    1  A    between atoms: C_2  and  C_3 
REMARK    2  A    between atoms: C_3  and  C_6 
REMARK    3  A    between atoms: C_3  and  C_4 
REMARK    4  A    between atoms: C_4  and  O_5 
ROOT
HETATM    1  C   LIG     1      17.200  37.435  22.739  1.00  0.00     0.008 C 
ENDROOT
BRANCH   1   2
HETATM    2  C   LIG     1      17.886  37.957  21.447  1.00  0.00     0.002 C 
HETATM    3  C   LIG     1      18.473  39.366  21.556  1.00  0.00     0.005 C 
ENDBRANCH   1   2
BRANCH   1   4
HETATM    4  C   LIG     1      17.507  38.286  23.995  1.00  0.00     0.002 C 
HETATM    5  C   LIG     1      17.983  37.453  25.186  1.00  0.00     0.005 C 
ENDBRANCH   1   4
BRANCH   1   6
HETATM    6  C   LIG     1      15.676  37.280  22.570  1.00  0.00     0.168 C 
BRANCH   6   7
HETATM    7  O   LIG     1      14.997  38.153  23.431  1.00  0.00    -0.400 OA
HETATM    8  H   LIG     1      15.698  38.655  23.923  1.00  0.00     0.209 HD
ENDBRANCH   6   7
ENDBRANCH   1   6
TORSDOF 4
ENDMDL
MODEL 6
REMARK VINA RESULT:      -4.2      3.838      5.117
REMARK  4 active torsions:
REMARK  status: ('A' for Active; 'I' for Inactive)
REMARK    1  A    between atoms: C_2  and  C_3 
REMARK    2  A    between atoms: C_3  and  C_6 
REMARK    3  A    between atoms: C_3  and  C_4 
REMARK    4  A    between atoms: C_4  and  O_5 
ROOT
HETATM    1  C   LIG     1      18.617  38.247  20.877  1.00  0.00     0.008 C 
ENDROOT
BRANCH   1   2
HETATM    2  C   LIG     1      17.444  38.592  21.835  1.00  0.00     0.002 C 
HETATM    3  C   LIG     1      17.787  38.510  23.324  1.00  0.00     0.005 C 
ENDBRANCH   1   2
BRANCH   1   4
HETATM    4  C   LIG     1      18.426  36.913  20.113  1.00  0.00     0.002 C 
HETATM    5  C   LIG     1      17.330  36.029  20.710  1.00  0.00     0.005 C 
ENDBRANCH   1   4
BRANCH   1   6
HETATM    6  C   LIG     1      18.911  39.385  19.880  1.00  0.00     0.168 C 
BRANCH   6   7
HETATM    7  O   LIG     1      20.274  39.409  19.553  1.00  0.00    -0.400 OA
HETATM    8  H   LIG     1      20.579  40.340  19.709  1.00  0.00     0.209 HD
ENDBRANCH   6   7
ENDBRANCH   1   6
TORSDOF 4
ENDMDL
MODEL 7
REMARK VINA RESULT:      -4.2      7.777      9.211
REMARK  4 active torsions:
REMARK  status: ('A' for Active; 'I' for Inactive)
REMARK    1  A    between atoms: C_2  and  C_3 
REMARK    2  A    between atoms: C_3  and  C_6 
REMARK    3  A    between atoms: C_3  and  C_4 
REMARK    4  A    between atoms: C_4  and  O_5 
ROOT
HETATM    1  C   LIG     1      15.047  32.630  17.614  1.00  0.00     0.008 C 
ENDROOT
BRANCH   1   2
HETATM    2  C   LIG     1      15.322  32.642  19.142  1.00  0.00     0.002 C 
HETATM    3  C   LIG     1      14.845  31.394  19.890  1.00  0.00     0.005 C 
ENDBRANCH   1   2
BRANCH   1   4
HETATM    4  C   LIG     1      13.840  31.752  17.204  1.00  0.00     0.002 C 
HETATM    5  C   LIG     1      14.068  30.983  15.902  1.00  0.00     0.005 C 
ENDBRANCH   1   4
BRANCH   1   6
HETATM    6  C   LIG     1      14.881  34.051  17.040  1.00  0.00     0.168 C 
BRANCH   6   7
HETATM    7  O   LIG     1      15.999  34.401  16.269  1.00  0.00    -0.400 OA
HETATM    8  H   LIG     1      15.646  34.686  15.386  1.00  0.00     0.209 HD
ENDBRANCH   6   7
ENDBRANCH   1   6
TORSDOF 4
ENDMDL
MODEL 8
REMARK VINA RESULT:      -4.1      3.115      4.027
REMARK  4 active torsions:
REMARK  status: ('A' for Active; 'I' for Inactive)
REMARK    1  A    between atoms: C_2  and  C_3 
REMARK    2  A    between atoms: C_3  and  C_6 
REMARK    3  A    between atoms: C_3  and  C_4 
REMARK    4  A    between atoms: C_4  and  O_5 
ROOT
HETATM    1  C   LIG     1      16.123  36.285  21.808  1.00  0.00     0.008 C 
ENDROOT
BRANCH   1   2
HETATM    2  C   LIG     1      16.044  37.493  22.781  1.00  0.00     0.002 C 
HETATM    3  C   LIG     1      16.940  38.677  22.409  1.00  0.00     0.005 C 
ENDBRANCH   1   2
BRANCH   1   4
HETATM    4  C   LIG     1      16.795  35.033  22.422  1.00  0.00     0.002 C 
HETATM    5  C   LIG     1      17.119  35.191  23.908  1.00  0.00     0.005 C 
ENDBRANCH   1   4
BRANCH   1   6
HETATM    6  C   LIG     1      14.744  35.911  21.230  1.00  0.00     0.168 C 
BRANCH   6   7
HETATM    7  O   LIG     1      14.398  34.603  21.598  1.00  0.00    -0.400 OA
HETATM    8  H   LIG     1      13.488  34.659  21.991  1.00  0.00     0.209 HD
ENDBRANCH   6   7
ENDBRANCH   1   6
TORSDOF 4
ENDMDL
MODEL 9
REMARK VINA RESULT:      -4.1      1.948      3.356
REMARK  4 active torsions:
REMARK  status: ('A' for Active; 'I' for Inactive)
REMARK    1  A    between atoms: C_2  and  C_3 
REMARK    2  A    between atoms: C_3  and  C_6 
REMARK    3  A    between atoms: C_3  and  C_4 
REMARK    4  A    between atoms: C_4  and  O_5 
ROOT
HETATM    1  C   LIG     1      17.530  37.745  23.173  1.00  0.00     0.008 C 
ENDROOT
BRANCH   1   2
HETATM    2  C   LIG     1      17.284  38.056  24.674  1.00  0.00     0.002 C 
HETATM    3  C   LIG     1      18.061  37.169  25.650  1.00  0.00     0.005 C 
ENDBRANCH   1   2
BRANCH   1   4
HETATM    4  C   LIG     1      16.456  36.824  22.543  1.00  0.00     0.002 C 
HETATM    5  C   LIG     1      16.889  35.359  22.465  1.00  0.00     0.005 C 
ENDBRANCH   1   4
BRANCH   1   6
HETATM    6  C   LIG     1      17.685  39.025  22.329  1.00  0.00     0.168 C 
BRANCH   6   7
HETATM    7  O   LIG     1      19.041  39.338  22.159  1.00  0.00    -0.400 OA
HETATM    8  H   LIG     1      19.464  38.530  21.766  1.00  0.00     0.209 HD
ENDBRANCH   6   7
ENDBRANCH   1   6
TORSDOF 4
ENDMDL
MODEL 10
REMARK VINA RESULT:      -4.0      2.406      2.982
REMARK  4 active torsions:
REMARK  status: ('A' for Active; 'I' for Inactive)
REMARK    1  A    between atoms: C_2  and  C_3 
REMARK    2  A    between atoms: C_3  and  C_6 
REMARK    3  A    between atoms: C_3  and  C_4 
REMARK    4  A    between atoms: C_4  and  O_5 
ROOT
HETATM    1  C   LIG     1      17.097  38.403  22.736  1.00  0.00     0.008 C 
ENDROOT
BRANCH   1   2
HETATM    2  C   LIG     1      16.177  37.175  22.490  1.00  0.00     0.002 C 
HETATM    3  C   LIG     1      16.912  35.891  22.097  1.00  0.00     0.005 C 
ENDBRANCH   1   2
BRANCH   1   4
HETATM    4  C   LIG     1      18.016  38.255  23.973  1.00  0.00     0.002 C 
HETATM    5  C   LIG     1      17.247  37.961  25.263  1.00  0.00     0.005 C 
ENDBRANCH   1   4
BRANCH   1   6
HETATM    6  C   LIG     1      17.939  38.759  21.496  1.00  0.00     0.168 C 
BRANCH   6   7
HETATM    7  O   LIG     1      19.012  39.586  21.854  1.00  0.00    -0.400 OA
HETATM    8  H   LIG     1      19.819  39.190  21.433  1.00  0.00     0.209 HD
ENDBRANCH   6   7
ENDBRANCH   1   6
TORSDOF 4
ENDMDL
MODEL 11
REMARK VINA RESULT:      -4.0      1.466      2.915
REMARK  4 active torsions:
REMARK  status: ('A' for Active; 'I' for Inactive)
REMARK    1  A    between atoms: C_2  and  C_3 
REMARK    2  A    between atoms: C_3  and  C_6 
REMARK    3  A    between atoms: C_3  and  C_4 
REMARK    4  A    between atoms: C_4  and  O_5 
ROOT
HETATM    1  C   LIG     1      16.895  36.672  23.541  1.00  0.00     0.008 C 
ENDROOT
BRANCH   1   2
HETATM    2  C   LIG     1      17.563  37.814  22.726  1.00  0.00     0.002 C 
HETATM    3  C   LIG     1      16.668  39.030  22.472  1.00  0.00     0.005 C 
ENDBRANCH   1   2
BRANCH   1   4
HETATM    4  C   LIG     1      17.021  35.278  22.879  1.00  0.00     0.002 C 
HETATM    5  C   LIG     1      16.061  35.080  21.704  1.00  0.00     0.005 C 
ENDBRANCH   1   4
BRANCH   1   6
HETATM    6  C   LIG     1      17.410  36.613  24.992  1.00  0.00     0.168 C 
BRANCH   6   7
HETATM    7  O   LIG     1      16.929  37.705  25.727  1.00  0.00    -0.400 OA
HETATM    8  H   LIG     1      16.688  37.350  26.622  1.00  0.00     0.209 HD
ENDBRANCH   6   7
ENDBRANCH   1   6
TORSDOF 4
ENDMDL
MODEL 12
REMARK VINA RESULT:      -4.0      4.259      5.686
REMARK  4 active torsions:
REMARK  status: ('A' for Active; 'I' for Inactive)
REMARK    1  A    between atoms: C_2  and  C_3 
REMARK    2  A    between atoms: C_3  and  C_6 
REMARK    3  A    between atoms: C_3  and  C_4 
REMARK    4  A    between atoms: C_4  and  O_5 
ROOT
HETATM    1  C   LIG     1      18.145  38.149  20.486  1.00  0.00     0.008 C 
ENDROOT
BRANCH   1   2
HETATM    2  C   LIG     1      17.830  38.055  22.004  1.00  0.00     0.002 C 
HETATM    3  C   LIG     1      16.535  37.316  22.347  1.00  0.00     0.005 C 
ENDBRANCH   1   2
BRANCH   1   4
HETATM    4  C   LIG     1      19.112  39.301  20.120  1.00  0.00     0.002 C 
HETATM    5  C   LIG     1      20.425  38.813  19.506  1.00  0.00     0.005 C 
ENDBRANCH   1   4
BRANCH   1   6
HETATM    6  C   LIG     1      18.674  36.818  19.917  1.00  0.00     0.168 C 
BRANCH   6   7
HETATM    7  O   LIG     1      18.068  36.538  18.684  1.00  0.00    -0.400 OA
HETATM    8  H   LIG     1      17.456  37.297  18.499  1.00  0.00     0.209 HD
ENDBRANCH   6   7
ENDBRANCH   1   6
TORSDOF 4
ENDMDL
MODEL 13
REMARK VINA RESULT:      -3.9     11.153     12.434
REMARK  4 active torsions:
REMARK  status: ('A' for Active; 'I' for Inactive)
REMARK    1  A    between atoms: C_2  and  C_3 
REMARK    2  A    between atoms: C_3  and  C_6 
REMARK    3  A    between atoms: C_3  and  C_4 
REMARK    4  A    between atoms: C_4  and  O_5 
ROOT
HETATM    1  C   LIG     1      14.343  30.294  15.296  1.00  0.00     0.008 C 
ENDROOT
BRANCH   1   2
HETATM    2  C   LIG     1      15.277  31.488  14.956  1.00  0.00     0.002 C 
HETATM    3  C   LIG     1      15.776  31.519  13.509  1.00  0.00     0.005 C 
ENDBRANCH   1   2
BRANCH   1   4
HETATM    4  C   LIG     1      13.001  30.718  15.944  1.00  0.00     0.002 C 
HETATM    5  C   LIG     1      13.137  31.924  16.875  1.00  0.00     0.005 C 
ENDBRANCH   1   4
BRANCH   1   6
HETATM    6  C   LIG     1      14.074  29.396  14.074  1.00  0.00     0.168 C 
BRANCH   6   7
HETATM    7  O   LIG     1      12.743  28.956  14.072  1.00  0.00    -0.400 OA
HETATM    8  H   LIG     1      12.188  29.758  14.256  1.00  0.00     0.209 HD
ENDBRANCH   6   7
ENDBRANCH   1   6
TORSDOF 4
ENDMDL
MODEL 14
REMARK VINA RESULT:      -3.9     12.134     12.961
REMARK  4 active torsions:
REMARK  status: ('A' for Active; 'I' for Inactive)
REMARK    1  A    between atoms: C_2  and  C_3 
REMARK    2  A    between atoms: C_3  and  C_6 
REMARK    3  A    between atoms: C_3  and  C_4 
REMARK    4  A    between atoms: C_4  and  O_5 
ROOT
HETATM    1  C   LIG     1      14.702  30.326  14.099  1.00  0.00     0.008 C 
ENDROOT
BRANCH   1   2
HETATM    2  C   LIG     1      14.384  30.693  15.575  1.00  0.00     0.002 C 
HETATM    3  C   LIG     1      12.899  30.645  15.943  1.00  0.00     0.005 C 
ENDBRANCH   1   2
BRANCH   1   4
HETATM    4  C   LIG     1      15.673  31.312  13.406  1.00  0.00     0.002 C 
HETATM    5  C   LIG     1      16.291  32.326  14.371  1.00  0.00     0.005 C 
ENDBRANCH   1   4
BRANCH   1   6
HETATM    6  C   LIG     1      15.227  28.884  13.957  1.00  0.00     0.168 C 
BRANCH   6   7
HETATM    7  O   LIG     1      14.188  28.019  13.587  1.00  0.00    -0.400 OA
HETATM    8  H   LIG     1      14.181  28.006  12.594  1.00  0.00     0.209 HD
ENDBRANCH   6   7
ENDBRANCH   1   6
TORSDOF 4
ENDMDL
MODEL 15
REMARK VINA RESULT:      -3.9      4.116      4.993
REMARK  4 active torsions:
REMARK  status: ('A' for Active; 'I' for Inactive)
REMARK    1  A    between atoms: C_2  and  C_3 
REMARK    2  A    between atoms: C_3  and  C_6 
REMARK    3  A    between atoms: C_3  and  C_4 
REMARK    4  A    between atoms: C_4  and  O_5 
ROOT
HETATM    1  C   LIG     1      15.818  35.761  21.093  1.00  0.00     0.008 C 
ENDROOT
BRANCH   1   2
HETATM    2  C   LIG     1      14.957  36.603  22.075  1.00  0.00     0.002 C 
HETATM    3  C   LIG     1      15.710  37.732  22.783  1.00  0.00     0.005 C 
ENDBRANCH   1   2
BRANCH   1   4
HETATM    4  C   LIG     1      17.340  35.858  21.359  1.00  0.00     0.002 C 
HETATM    5  C   LIG     1      18.106  36.549  20.230  1.00  0.00     0.005 C 
ENDBRANCH   1   4
BRANCH   1   6
HETATM    6  C   LIG     1      15.384  34.283  21.057  1.00  0.00     0.168 C 
BRANCH   6   7
HETATM    7  O   LIG     1      14.077  34.144  21.545  1.00  0.00    -0.400 OA
HETATM    8  H   LIG     1      13.862  33.177  21.485  1.00  0.00     0.209 HD
ENDBRANCH   6   7
ENDBRANCH   1   6
TORSDOF 4
ENDMDL
MODEL 16
REMARK VINA RESULT:      -3.9      8.943     10.275
REMARK  4 active torsions:
REMARK  status: ('A' for Active; 'I' for Inactive)
REMARK    1  A    between atoms: C_2  and  C_3 
REMARK    2  A    between atoms: C_3  and  C_6 
REMARK    3  A    between atoms: C_3  and  C_4 
REMARK    4  A    between atoms: C_4  and  O_5 
ROOT
HETATM    1  C   LIG     1      14.785  32.599  16.090  1.00  0.00     0.008 C 
ENDROOT
BRANCH   1   2
HETATM    2  C   LIG     1      16.072  32.079  15.393  1.00  0.00     0.002 C 
HETATM    3  C   LIG     1      15.988  32.000  13.867  1.00  0.00     0.005 C 
ENDBRANCH   1   2
BRANCH   1   4
HETATM    4  C   LIG     1      14.065  31.530  16.948  1.00  0.00     0.002 C 
HETATM    5  C   LIG     1      12.995  30.758  16.176  1.00  0.00     0.005 C 
ENDBRANCH   1   4
BRANCH   1   6
HETATM    6  C   LIG     1      15.048  33.861  16.935  1.00  0.00     0.168 C 
BRANCH   6   7
HETATM    7  O   LIG     1      15.999  34.679  16.310  1.00  0.00    -0.400 OA
HETATM    8  H   LIG     1      16.617  34.067  15.831  1.00  0.00     0.209 HD
ENDBRANCH   6   7
ENDBRANCH   1   6
TORSDOF 4
ENDMDL
MODEL 17
REMARK VINA RESULT:      -3.9     11.199     12.281
REMARK  4 active torsions:
REMARK  status: ('A' for Active; 'I' for Inactive)
REMARK    1  A    between atoms: C_2  and  C_3 
REMARK    2  A    between atoms: C_3  and  C_6 
REMARK    3  A    between atoms: C_3  and  C_4 
REMARK    4  A    between atoms: C_4  and  O_5 
ROOT
HETATM    1  C   LIG     1      15.392  31.030  14.979  1.00  0.00     0.008 C 
ENDROOT
BRANCH   1   2
HETATM    2  C   LIG     1      14.336  31.415  16.050  1.00  0.00     0.002 C 
HETATM    3  C   LIG     1      13.010  30.658  15.945  1.00  0.00     0.005 C 
ENDBRANCH   1   2
BRANCH   1   4
HETATM    4  C   LIG     1      14.824  30.168  13.825  1.00  0.00     0.002 C 
HETATM    5  C   LIG     1      15.309  28.718  13.860  1.00  0.00     0.005 C 
ENDBRANCH   1   4
BRANCH   1   6
HETATM    6  C   LIG     1      16.118  32.262  14.406  1.00  0.00     0.168 C 
BRANCH   6   7
HETATM    7  O   LIG     1      16.103  32.231  13.004  1.00  0.00    -0.400 OA
HETATM    8  H   LIG     1      16.361  33.142  12.706  1.00  0.00     0.209 HD
ENDBRANCH   6   7
ENDBRANCH   1   6
TORSDOF 4
ENDMDL
MODEL 18
REMARK VINA RESULT:      -3.9      9.218     10.586
REMARK  4 active torsions:
REMARK  status: ('A' for Active; 'I' for Inactive)
REMARK    1  A    between atoms: C_2  and  C_3 
REMARK    2  A    between atoms: C_3  and  C_6 
REMARK    3  A    between atoms: C_3  and  C_4 
REMARK    4  A    between atoms: C_4  and  O_5 
ROOT
HETATM    1  C   LIG     1      15.572  32.207  16.033  1.00  0.00     0.008 C 
ENDROOT
BRANCH   1   2
HETATM    2  C   LIG     1      14.475  31.201  15.589  1.00  0.00     0.002 C 
HETATM    3  C   LIG     1      13.248  31.145  16.503  1.00  0.00     0.005 C 
ENDBRANCH   1   2
BRANCH   1   4
HETATM    4  C   LIG     1      16.526  32.633  14.890  1.00  0.00     0.002 C 
HETATM    5  C   LIG     1      16.100  32.102  13.520  1.00  0.00     0.005 C 
ENDBRANCH   1   4
BRANCH   1   6
HETATM    6  C   LIG     1      14.978  33.455  16.714  1.00  0.00     0.168 C 
BRANCH   6   7
HETATM    7  O   LIG     1      15.763  34.583  16.438  1.00  0.00    -0.400 OA
HETATM    8  H   LIG     1      15.929  34.572  15.460  1.00  0.00     0.209 HD
ENDBRANCH   6   7
ENDBRANCH   1   6
TORSDOF 4
ENDMDL
MODEL 19
REMARK VINA RESULT:      -3.8      2.875      4.456
REMARK  4 active torsions:
REMARK  status: ('A' for Active; 'I' for Inactive)
REMARK    1  A    between atoms: C_2  and  C_3 
REMARK    2  A    between atoms: C_3  and  C_6 
REMARK    3  A    between atoms: C_3  and  C_4 
REMARK    4  A    between atoms: C_4  and  O_5 
ROOT
HETATM    1  C   LIG     1      17.212  35.624  21.208  1.00  0.00     0.008 C 
ENDROOT
BRANCH   1   2
HETATM    2  C   LIG     1      15.950  35.232  20.392  1.00  0.00     0.002 C 
HETATM    3  C   LIG     1      15.624  33.737  20.393  1.00  0.00     0.005 C 
ENDBRANCH   1   2
BRANCH   1   4
HETATM    4  C   LIG     1      17.846  36.967  20.768  1.00  0.00     0.002 C 
HETATM    5  C   LIG     1      18.910  36.805  19.682  1.00  0.00     0.005 C 
ENDBRANCH   1   4
BRANCH   1   6
HETATM    6  C   LIG     1      16.945  35.641  22.725  1.00  0.00     0.168 C 
BRANCH   6   7
HETATM    7  O   LIG     1      16.473  36.900  23.124  1.00  0.00    -0.400 OA
HETATM    8  H   LIG     1      16.379  37.435  22.294  1.00  0.00     0.209 HD
ENDBRANCH   6   7
ENDBRANCH   1   6
TORSDOF 4
ENDMDL
MODEL 20
REMARK VINA RESULT:      -3.8      3.212      4.799
REMARK  4 active torsions:
REMARK  status: ('A' for Active; 'I' for Inactive)
REMARK    1  A    between atoms: C_2  and  C_3 
REMARK    2  A    between atoms: C_3  and  C_6 
REMARK    3  A    between atoms: C_3  and  C_4 
REMARK    4  A    between atoms: C_4  and  O_5 
ROOT
HETATM    1  C   LIG     1      17.261  37.095  21.367  1.00  0.00     0.008 C 
ENDROOT
BRANCH   1   2
HETATM    2  C   LIG     1      17.750  38.370  22.107  1.00  0.00     0.002 C 
HETATM    3  C   LIG     1      17.654  38.303  23.633  1.00  0.00     0.005 C 
ENDBRANCH   1   2
BRANCH   1   4
HETATM    4  C   LIG     1      18.246  36.586  20.286  1.00  0.00     0.002 C 
HETATM    5  C   LIG     1      19.063  37.706  19.640  1.00  0.00     0.005 C 
ENDBRANCH   1   4
BRANCH   1   6
HETATM    6  C   LIG     1      16.914  35.952  22.340  1.00  0.00     0.168 C 
BRANCH   6   7
HETATM    7  O   LIG     1      16.671  34.765  21.635  1.00  0.00    -0.400 OA
HETATM    8  H   LIG     1      16.805  34.983  20.676  1.00  0.00     0.209 HD
ENDBRANCH   6   7
ENDBRANCH   1   6
TORSDOF 4
ENDMDL
