REMARK  4 active torsions:
REMARK  status: ('A' for Active; 'I' for Inactive)
REMARK    1  A    between atoms: C_2  and  C_3 
REMARK    2  A    between atoms: C_3  and  C_6 
REMARK    3  A    between atoms: C_3  and  C_4 
REMARK    4  A    between atoms: C_4  and  O_5 
ROOT
HETATM    1  C   LIG     1       0.117   0.582   0.323  1.00  0.00     0.008 C 
ENDROOT
BRANCH   1   2
HETATM    2  C   LIG     1      -0.427  -0.700   1.011  1.00  0.00     0.002 C 
HETATM    3  C   LIG     1      -1.193  -1.649   0.086  1.00  0.00     0.005 C 
ENDBRANCH   1   2
BRANCH   1   4
HETATM    4  C   LIG     1       1.078   0.296  -0.857  1.00  0.00     0.002 C 
HETATM    5  C   LIG     1       2.310  -0.513  -0.448  1.00  0.00     0.005 C 
ENDBRANCH   1   4
BRANCH   1   6
HETATM    6  C   LIG     1      -1.014   1.522  -0.137  1.00  0.00     0.168 C 
BRANCH   6   7
HETATM    7  O   LIG     1      -1.841   1.858   0.944  1.00  0.00    -0.400 OA
HETATM    8  H   LIG     1      -2.550   2.447   0.576  1.00  0.00     0.209 HD
ENDBRANCH   6   7
ENDBRANCH   1   6
TORSDOF 4
