REMARK  1 active torsions:
REMARK  status: ('A' for Active; 'I' for Inactive)
REMARK    1  A    between atoms: C_2  and  C_3 
ROOT
HETATM    1  C   LIG     1       3.453  -0.142   0.071  1.00  0.00     0.024 C 
HETATM    2  C   LIG     1       3.529  -0.738  -1.374  1.00  0.00     0.018 C 
HETATM    3  C   LIG     1       2.123  -0.628  -1.994  1.00  0.00     0.007 C 
HETATM    4  C   LIG     1       1.268   0.041  -0.915  1.00  0.00     0.003 C 
HETATM    5  C   LIG     1      -0.291  -0.022  -0.968  1.00  0.00     0.018 C 
HETATM    6  C   LIG     1      -0.944  -1.255  -1.519  1.00  0.00    -0.014 C 
HETATM    7  C   LIG     1      -2.281  -1.411  -1.429  1.00  0.00    -0.058 C 
HETATM    8  C   LIG     1      -3.118  -0.463  -0.592  1.00  0.00    -0.040 C 
HETATM    9  C   LIG     1      -4.454  -0.634  -0.514  1.00  0.00     0.058 C 
HETATM   10  C   LIG     1      -5.282   0.090   0.465  1.00  0.00     0.149 C 
HETATM   11  C   LIG     1      -4.666   0.933   1.541  1.00  0.00     0.084 C 
HETATM   12  C   LIG     1      -3.144   0.737   1.629  1.00  0.00     0.022 C 
HETATM   13  C   LIG     1      -2.451   0.663   0.232  1.00  0.00    -0.012 C 
HETATM   14  C   LIG     1      -0.936   0.297   0.411  1.00  0.00     0.006 C 
HETATM   15  C   LIG     1      -0.046   1.271   1.216  1.00  0.00     0.007 C 
HETATM   16  C   LIG     1       1.327   0.621   1.560  1.00  0.00     0.011 C 
HETATM   17  C   LIG     1       1.916  -0.314   0.431  1.00  0.00    -0.026 C 
HETATM   18  C   LIG     1       1.619  -1.810   0.797  1.00  0.00     0.016 C 
HETATM   19  C   LIG     1      -2.635   2.023  -0.499  1.00  0.00     0.021 C 
HETATM   20  O   LIG     1      -6.536  -0.009   0.404  1.00  0.00    -0.293 OA
HETATM   21  C   LIG     1      -2.908  -2.617  -2.088  1.00  0.00     0.048 C 
HETATM   22  C   LIG     1       4.398  -0.933   1.013  1.00  0.00     0.024 C 
ENDROOT
BRANCH   1  23
HETATM   23  C   LIG     1       3.928   1.334   0.095  1.00  0.00     0.132 C 
HETATM   24  C   LIG     1       4.177   2.163  -1.142  1.00  0.00     0.091 C 
HETATM   25  O   LIG     1       4.198   1.854   1.169  1.00  0.00    -0.298 OA
ENDBRANCH   1  23
TORSDOF 1
