MODEL 1
REMARK VINA RESULT:      -6.1      0.000      0.000
REMARK  1 active torsions:
REMARK  status: ('A' for Active; 'I' for Inactive)
REMARK    1  A    between atoms: C_2  and  C_3 
ROOT
HETATM    1  C   LIG     1      28.614  25.749  19.356  1.00  0.00     0.024 C 
HETATM    2  C   LIG     1      28.265  26.085  20.844  1.00  0.00     0.018 C 
HETATM    3  C   LIG     1      27.383  24.942  21.381  1.00  0.00     0.007 C 
HETATM    4  C   LIG     1      27.252  23.963  20.212  1.00  0.00     0.003 C 
HETATM    5  C   LIG     1      26.128  22.879  20.191  1.00  0.00     0.018 C 
HETATM    6  C   LIG     1      24.798  23.209  20.800  1.00  0.00    -0.014 C 
HETATM    7  C   LIG     1      23.758  22.363  20.655  1.00  0.00    -0.058 C 
HETATM    8  C   LIG     1      23.845  21.182  19.706  1.00  0.00    -0.040 C 
HETATM    9  C   LIG     1      22.795  20.346  19.574  1.00  0.00     0.058 C 
HETATM   10  C   LIG     1      22.724  19.339  18.502  1.00  0.00     0.149 C 
HETATM   11  C   LIG     1      23.737  19.298  17.397  1.00  0.00     0.084 C 
HETATM   12  C   LIG     1      24.648  20.536  17.402  1.00  0.00     0.022 C 
HETATM   13  C   LIG     1      25.102  20.961  18.834  1.00  0.00    -0.012 C 
HETATM   14  C   LIG     1      25.884  22.319  18.760  1.00  0.00     0.006 C 
HETATM   15  C   LIG     1      27.187  22.361  17.930  1.00  0.00     0.007 C 
HETATM   16  C   LIG     1      27.662  23.827  17.707  1.00  0.00     0.011 C 
HETATM   17  C   LIG     1      27.418  24.794  18.932  1.00  0.00    -0.026 C 
HETATM   18  C   LIG     1      26.126  25.643  18.667  1.00  0.00     0.016 C 
HETATM   19  C   LIG     1      25.970  19.826  19.449  1.00  0.00     0.021 C 
HETATM   20  O   LIG     1      21.785  18.499  18.506  1.00  0.00    -0.293 OA
HETATM   21  C   LIG     1      22.467  22.683  21.371  1.00  0.00     0.048 C 
HETATM   22  C   LIG     1      28.679  27.058  18.526  1.00  0.00     0.024 C 
ENDROOT
BRANCH   1  23
HETATM   23  C   LIG     1      30.007  25.077  19.243  1.00  0.00     0.132 C 
HETATM   24  C   LIG     1      30.684  24.340  20.374  1.00  0.00     0.091 C 
HETATM   25  O   LIG     1      30.647  25.205  18.209  1.00  0.00    -0.298 OA
ENDBRANCH   1  23
TORSDOF 1
ENDMDL
MODEL 2
REMARK VINA RESULT:      -5.9      4.675      7.923
REMARK  1 active torsions:
REMARK  status: ('A' for Active; 'I' for Inactive)
REMARK    1  A    between atoms: C_2  and  C_3 
ROOT
HETATM    1  C   LIG     1      23.319  19.560  27.149  1.00  0.00     0.024 C 
HETATM    2  C   LIG     1      24.067  20.751  27.835  1.00  0.00     0.018 C 
HETATM    3  C   LIG     1      24.268  21.846  26.771  1.00  0.00     0.007 C 
HETATM    4  C   LIG     1      23.623  21.285  25.502  1.00  0.00     0.003 C 
HETATM    5  C   LIG     1      23.949  21.886  24.098  1.00  0.00     0.018 C 
HETATM    6  C   LIG     1      25.331  22.409  23.842  1.00  0.00    -0.014 C 
HETATM    7  C   LIG     1      25.694  22.782  22.597  1.00  0.00    -0.058 C 
HETATM    8  C   LIG     1      24.802  22.486  21.407  1.00  0.00    -0.040 C 
HETATM    9  C   LIG     1      25.181  22.867  20.170  1.00  0.00     0.058 C 
HETATM   10  C   LIG     1      24.490  22.397  18.958  1.00  0.00     0.149 C 
HETATM   11  C   LIG     1      23.431  21.338  19.021  1.00  0.00     0.084 C 
HETATM   12  C   LIG     1      23.360  20.673  20.405  1.00  0.00     0.022 C 
HETATM   13  C   LIG     1      23.489  21.688  21.583  1.00  0.00    -0.012 C 
HETATM   14  C   LIG     1      23.574  20.913  22.944  1.00  0.00     0.006 C 
HETATM   15  C   LIG     1      22.375  20.025  23.348  1.00  0.00     0.007 C 
HETATM   16  C   LIG     1      22.741  19.100  24.546  1.00  0.00     0.011 C 
HETATM   17  C   LIG     1      23.697  19.756  25.619  1.00  0.00    -0.026 C 
HETATM   18  C   LIG     1      25.165  19.265  25.367  1.00  0.00     0.016 C 
HETATM   19  C   LIG     1      22.279  22.664  21.548  1.00  0.00     0.021 C 
HETATM   20  O   LIG     1      24.802  22.889  17.841  1.00  0.00    -0.293 OA
HETATM   21  C   LIG     1      27.059  23.400  22.404  1.00  0.00     0.048 C 
HETATM   22  C   LIG     1      23.821  18.217  27.740  1.00  0.00     0.024 C 
ENDROOT
BRANCH   1  23
HETATM   23  C   LIG     1      21.793  19.627  27.417  1.00  0.00     0.132 C 
HETATM   24  C   LIG     1      21.061  20.879  27.835  1.00  0.00     0.091 C 
HETATM   25  O   LIG     1      21.136  18.596  27.369  1.00  0.00    -0.298 OA
ENDBRANCH   1  23
TORSDOF 1
ENDMDL
MODEL 3
REMARK VINA RESULT:      -5.6     12.135     15.229
REMARK  1 active torsions:
REMARK  status: ('A' for Active; 'I' for Inactive)
REMARK    1  A    between atoms: C_2  and  C_3 
ROOT
HETATM    1  C   LIG     1      28.639  25.528  29.256  1.00  0.00     0.024 C 
HETATM    2  C   LIG     1      30.130  25.938  29.015  1.00  0.00     0.018 C 
HETATM    3  C   LIG     1      30.580  26.780  30.225  1.00  0.00     0.007 C 
HETATM    4  C   LIG     1      29.359  26.827  31.147  1.00  0.00     0.003 C 
HETATM    5  C   LIG     1      29.245  27.896  32.279  1.00  0.00     0.018 C 
HETATM    6  C   LIG     1      29.826  29.259  32.044  1.00  0.00    -0.014 C 
HETATM    7  C   LIG     1      29.604  30.252  32.930  1.00  0.00    -0.058 C 
HETATM    8  C   LIG     1      28.600  30.078  34.054  1.00  0.00    -0.040 C 
HETATM    9  C   LIG     1      28.391  31.082  34.931  1.00  0.00     0.058 C 
HETATM   10  C   LIG     1      27.267  31.071  35.883  1.00  0.00     0.149 C 
HETATM   11  C   LIG     1      26.197  30.023  35.819  1.00  0.00     0.084 C 
HETATM   12  C   LIG     1      26.294  29.174  34.541  1.00  0.00     0.022 C 
HETATM   13  C   LIG     1      27.760  28.785  34.171  1.00  0.00    -0.012 C 
HETATM   14  C   LIG     1      27.781  28.069  32.775  1.00  0.00     0.006 C 
HETATM   15  C   LIG     1      26.997  26.745  32.629  1.00  0.00     0.007 C 
HETATM   16  C   LIG     1      26.865  26.335  31.133  1.00  0.00     0.011 C 
HETATM   17  C   LIG     1      28.129  26.663  30.244  1.00  0.00    -0.026 C 
HETATM   18  C   LIG     1      27.864  27.985  29.443  1.00  0.00     0.016 C 
HETATM   19  C   LIG     1      28.345  27.883  35.294  1.00  0.00     0.021 C 
HETATM   20  O   LIG     1      27.198  31.967  36.765  1.00  0.00    -0.293 OA
HETATM   21  C   LIG     1      30.292  31.578  32.709  1.00  0.00     0.048 C 
HETATM   22  C   LIG     1      27.880  25.501  27.904  1.00  0.00     0.024 C 
ENDROOT
BRANCH   1  23
HETATM   23  C   LIG     1      28.539  24.102  29.856  1.00  0.00     0.132 C 
HETATM   24  C   LIG     1      29.663  23.413  30.593  1.00  0.00     0.091 C 
HETATM   25  O   LIG     1      27.524  23.446  29.664  1.00  0.00    -0.298 OA
ENDBRANCH   1  23
TORSDOF 1
ENDMDL
MODEL 4
REMARK VINA RESULT:      -5.4      2.227      3.428
REMARK  1 active torsions:
REMARK  status: ('A' for Active; 'I' for Inactive)
REMARK    1  A    between atoms: C_2  and  C_3 
ROOT
HETATM    1  C   LIG     1      28.998  25.526  17.881  1.00  0.00     0.024 C 
HETATM    2  C   LIG     1      30.290  25.200  18.702  1.00  0.00     0.018 C 
HETATM    3  C   LIG     1      29.924  24.112  19.729  1.00  0.00     0.007 C 
HETATM    4  C   LIG     1      28.444  23.814  19.476  1.00  0.00     0.003 C 
HETATM    5  C   LIG     1      27.576  23.075  20.543  1.00  0.00     0.018 C 
HETATM    6  C   LIG     1      27.861  23.317  21.996  1.00  0.00    -0.014 C 
HETATM    7  C   LIG     1      27.031  22.827  22.939  1.00  0.00    -0.058 C 
HETATM    8  C   LIG     1      25.697  22.215  22.557  1.00  0.00    -0.040 C 
HETATM    9  C   LIG     1      24.880  21.729  23.514  1.00  0.00     0.058 C 
HETATM   10  C   LIG     1      23.484  21.353  23.237  1.00  0.00     0.149 C 
HETATM   11  C   LIG     1      22.841  21.645  21.914  1.00  0.00     0.084 C 
HETATM   12  C   LIG     1      23.710  22.563  21.040  1.00  0.00     0.022 C 
HETATM   13  C   LIG     1      25.228  22.201  21.083  1.00  0.00    -0.012 C 
HETATM   14  C   LIG     1      26.054  23.282  20.303  1.00  0.00     0.006 C 
HETATM   15  C   LIG     1      25.760  23.471  18.798  1.00  0.00     0.007 C 
HETATM   16  C   LIG     1      26.428  24.769  18.255  1.00  0.00     0.011 C 
HETATM   17  C   LIG     1      27.842  25.095  18.880  1.00  0.00    -0.026 C 
HETATM   18  C   LIG     1      27.670  26.182  19.997  1.00  0.00     0.016 C 
HETATM   19  C   LIG     1      25.427  20.779  20.487  1.00  0.00     0.021 C 
HETATM   20  O   LIG     1      22.810  20.782  24.135  1.00  0.00    -0.293 OA
HETATM   21  C   LIG     1      27.411  23.004  24.391  1.00  0.00     0.048 C 
HETATM   22  C   LIG     1      28.972  27.036  17.525  1.00  0.00     0.024 C 
ENDROOT
BRANCH   1  23
HETATM   23  C   LIG     1      28.974  24.748  16.540  1.00  0.00     0.132 C 
HETATM   24  C   LIG     1      29.237  23.266  16.417  1.00  0.00     0.091 C 
HETATM   25  O   LIG     1      28.809  25.366  15.497  1.00  0.00    -0.298 OA
ENDBRANCH   1  23
TORSDOF 1
ENDMDL
MODEL 5
REMARK VINA RESULT:      -5.4      4.114      7.229
REMARK  1 active torsions:
REMARK  status: ('A' for Active; 'I' for Inactive)
REMARK    1  A    between atoms: C_2  and  C_3 
ROOT
HETATM    1  C   LIG     1      23.977  21.085  19.480  1.00  0.00     0.024 C 
HETATM    2  C   LIG     1      25.356  21.482  18.856  1.00  0.00     0.018 C 
HETATM    3  C   LIG     1      26.347  21.688  20.017  1.00  0.00     0.007 C 
HETATM    4  C   LIG     1      25.538  21.390  21.282  1.00  0.00     0.003 C 
HETATM    5  C   LIG     1      26.034  21.862  22.685  1.00  0.00     0.018 C 
HETATM    6  C   LIG     1      26.781  23.159  22.787  1.00  0.00    -0.014 C 
HETATM    7  C   LIG     1      27.079  23.676  23.997  1.00  0.00    -0.058 C 
HETATM    8  C   LIG     1      26.489  23.080  25.261  1.00  0.00    -0.040 C 
HETATM    9  C   LIG     1      26.799  23.610  26.463  1.00  0.00     0.058 C 
HETATM   10  C   LIG     1      26.077  23.242  27.692  1.00  0.00     0.149 C 
HETATM   11  C   LIG     1      24.849  22.383  27.652  1.00  0.00     0.084 C 
HETATM   12  C   LIG     1      24.337  22.173  26.218  1.00  0.00     0.022 C 
HETATM   13  C   LIG     1      25.480  21.911  25.188  1.00  0.00    -0.012 C 
HETATM   14  C   LIG     1      24.888  21.875  23.736  1.00  0.00     0.006 C 
HETATM   15  C   LIG     1      23.837  20.789  23.409  1.00  0.00     0.007 C 
HETATM   16  C   LIG     1      23.134  21.080  22.050  1.00  0.00     0.011 C 
HETATM   17  C   LIG     1      24.074  21.699  20.941  1.00  0.00    -0.026 C 
HETATM   18  C   LIG     1      23.847  23.250  20.883  1.00  0.00     0.016 C 
HETATM   19  C   LIG     1      26.197  20.580  25.553  1.00  0.00     0.021 C 
HETATM   20  O   LIG     1      26.495  23.665  28.802  1.00  0.00    -0.293 OA
HETATM   21  C   LIG     1      27.920  24.929  24.054  1.00  0.00     0.048 C 
HETATM   22  C   LIG     1      22.826  21.689  18.633  1.00  0.00     0.024 C 
ENDROOT
BRANCH   1  23
HETATM   23  C   LIG     1      23.780  19.547  19.472  1.00  0.00     0.132 C 
HETATM   24  C   LIG     1      22.463  18.864  19.192  1.00  0.00     0.091 C 
HETATM   25  O   LIG     1      24.718  18.826  19.785  1.00  0.00    -0.298 OA
ENDBRANCH   1  23
TORSDOF 1
ENDMDL
MODEL 6
REMARK VINA RESULT:      -5.4      2.391      3.289
REMARK  1 active torsions:
REMARK  status: ('A' for Active; 'I' for Inactive)
REMARK    1  A    between atoms: C_2  and  C_3 
ROOT
HETATM    1  C   LIG     1      28.227  24.384  18.626  1.00  0.00     0.024 C 
HETATM    2  C   LIG     1      27.278  25.628  18.602  1.00  0.00     0.018 C 
HETATM    3  C   LIG     1      26.231  25.433  19.714  1.00  0.00     0.007 C 
HETATM    4  C   LIG     1      26.598  24.099  20.371  1.00  0.00     0.003 C 
HETATM    5  C   LIG     1      25.573  23.332  21.265  1.00  0.00     0.018 C 
HETATM    6  C   LIG     1      24.116  23.405  20.916  1.00  0.00    -0.014 C 
HETATM    7  C   LIG     1      23.225  22.627  21.564  1.00  0.00    -0.058 C 
HETATM    8  C   LIG     1      23.691  21.523  22.494  1.00  0.00    -0.040 C 
HETATM    9  C   LIG     1      22.785  20.755  23.134  1.00  0.00     0.058 C 
HETATM   10  C   LIG     1      23.164  19.524  23.847  1.00  0.00     0.149 C 
HETATM   11  C   LIG     1      24.553  18.965  23.761  1.00  0.00     0.084 C 
HETATM   12  C   LIG     1      25.395  19.671  22.687  1.00  0.00     0.022 C 
HETATM   13  C   LIG     1      25.197  21.219  22.668  1.00  0.00    -0.012 C 
HETATM   14  C   LIG     1      25.958  21.836  21.442  1.00  0.00     0.006 C 
HETATM   15  C   LIG     1      27.492  21.657  21.378  1.00  0.00     0.007 C 
HETATM   16  C   LIG     1      28.043  22.045  19.974  1.00  0.00     0.011 C 
HETATM   17  C   LIG     1      27.313  23.270  19.294  1.00  0.00    -0.026 C 
HETATM   18  C   LIG     1      26.276  22.733  18.247  1.00  0.00     0.016 C 
HETATM   19  C   LIG     1      25.696  21.812  24.016  1.00  0.00     0.021 C 
HETATM   20  O   LIG     1      22.300  18.920  24.536  1.00  0.00    -0.293 OA
HETATM   21  C   LIG     1      21.757  22.807  21.254  1.00  0.00     0.048 C 
HETATM   22  C   LIG     1      28.666  24.033  17.180  1.00  0.00     0.024 C 
ENDROOT
BRANCH   1  23
HETATM   23  C   LIG     1      29.521  24.679  19.428  1.00  0.00     0.132 C 
HETATM   24  C   LIG     1      29.651  25.788  20.444  1.00  0.00     0.091 C 
HETATM   25  O   LIG     1      30.532  24.037  19.182  1.00  0.00    -0.298 OA
ENDBRANCH   1  23
TORSDOF 1
ENDMDL
MODEL 7
REMARK VINA RESULT:      -5.2      4.518      6.463
REMARK  1 active torsions:
REMARK  status: ('A' for Active; 'I' for Inactive)
REMARK    1  A    between atoms: C_2  and  C_3 
ROOT
HETATM    1  C   LIG     1      25.409  22.474  19.434  1.00  0.00     0.024 C 
HETATM    2  C   LIG     1      23.856  22.314  19.332  1.00  0.00     0.018 C 
HETATM    3  C   LIG     1      23.286  22.413  20.760  1.00  0.00     0.007 C 
HETATM    4  C   LIG     1      24.506  22.647  21.655  1.00  0.00     0.003 C 
HETATM    5  C   LIG     1      24.433  22.406  23.196  1.00  0.00     0.018 C 
HETATM    6  C   LIG     1      23.560  21.300  23.712  1.00  0.00    -0.014 C 
HETATM    7  C   LIG     1      23.599  20.960  25.017  1.00  0.00    -0.058 C 
HETATM    8  C   LIG     1      24.663  21.528  25.935  1.00  0.00    -0.040 C 
HETATM    9  C   LIG     1      24.687  21.176  27.238  1.00  0.00     0.058 C 
HETATM   10  C   LIG     1      25.826  21.493  28.116  1.00  0.00     0.149 C 
HETATM   11  C   LIG     1      27.095  22.078  27.572  1.00  0.00     0.084 C 
HETATM   12  C   LIG     1      27.130  22.057  26.036  1.00  0.00     0.022 C 
HETATM   13  C   LIG     1      25.769  22.458  25.384  1.00  0.00    -0.012 C 
HETATM   14  C   LIG     1      25.844  22.250  23.831  1.00  0.00     0.006 C 
HETATM   15  C   LIG     1      26.890  23.068  23.040  1.00  0.00     0.007 C 
HETATM   16  C   LIG     1      27.045  22.526  21.588  1.00  0.00     0.011 C 
HETATM   17  C   LIG     1      25.703  22.019  20.927  1.00  0.00    -0.026 C 
HETATM   18  C   LIG     1      25.639  20.455  21.028  1.00  0.00     0.016 C 
HETATM   19  C   LIG     1      25.443  23.932  25.755  1.00  0.00     0.021 C 
HETATM   20  O   LIG     1      25.736  21.258  29.350  1.00  0.00    -0.293 OA
HETATM   21  C   LIG     1      22.630  19.913  25.514  1.00  0.00     0.048 C 
HETATM   22  C   LIG     1      26.098  21.580  18.371  1.00  0.00     0.024 C 
ENDROOT
BRANCH   1  23
HETATM   23  C   LIG     1      25.842  23.934  19.141  1.00  0.00     0.132 C 
HETATM   24  C   LIG     1      26.825  24.325  18.064  1.00  0.00     0.091 C 
HETATM   25  O   LIG     1      25.435  24.832  19.865  1.00  0.00    -0.298 OA
ENDBRANCH   1  23
TORSDOF 1
ENDMDL
MODEL 8
REMARK VINA RESULT:      -5.2      4.851      7.183
REMARK  1 active torsions:
REMARK  status: ('A' for Active; 'I' for Inactive)
REMARK    1  A    between atoms: C_2  and  C_3 
ROOT
HETATM    1  C   LIG     1      25.049  21.948  20.201  1.00  0.00     0.024 C 
HETATM    2  C   LIG     1      23.503  22.054  20.416  1.00  0.00     0.018 C 
HETATM    3  C   LIG     1      23.269  22.554  21.854  1.00  0.00     0.007 C 
HETATM    4  C   LIG     1      24.671  22.746  22.438  1.00  0.00     0.003 C 
HETATM    5  C   LIG     1      24.895  22.853  23.979  1.00  0.00     0.018 C 
HETATM    6  C   LIG     1      24.009  22.058  24.892  1.00  0.00    -0.014 C 
HETATM    7  C   LIG     1      24.278  21.999  26.213  1.00  0.00    -0.058 C 
HETATM    8  C   LIG     1      25.581  22.545  26.765  1.00  0.00    -0.040 C 
HETATM    9  C   LIG     1      25.832  22.478  28.089  1.00  0.00     0.058 C 
HETATM   10  C   LIG     1      27.164  22.761  28.650  1.00  0.00     0.149 C 
HETATM   11  C   LIG     1      28.356  22.977  27.767  1.00  0.00     0.084 C 
HETATM   12  C   LIG     1      28.061  22.627  26.300  1.00  0.00     0.022 C 
HETATM   13  C   LIG     1      26.660  23.122  25.819  1.00  0.00    -0.012 C 
HETATM   14  C   LIG     1      26.374  22.580  24.375  1.00  0.00     0.006 C 
HETATM   15  C   LIG     1      27.330  23.010  23.238  1.00  0.00     0.007 C 
HETATM   16  C   LIG     1      27.097  22.155  21.958  1.00  0.00     0.011 C 
HETATM   17  C   LIG     1      25.589  21.772  21.685  1.00  0.00    -0.026 C 
HETATM   18  C   LIG     1      25.336  20.303  22.172  1.00  0.00     0.016 C 
HETATM   19  C   LIG     1      26.624  24.675  25.872  1.00  0.00     0.021 C 
HETATM   20  O   LIG     1      27.307  22.812  29.900  1.00  0.00    -0.293 OA
HETATM   21  C   LIG     1      23.303  21.274  27.111  1.00  0.00     0.048 C 
HETATM   22  C   LIG     1      25.368  20.739  19.283  1.00  0.00     0.024 C 
ENDROOT
BRANCH   1  23
HETATM   23  C   LIG     1      25.605  23.210  19.491  1.00  0.00     0.132 C 
HETATM   24  C   LIG     1      26.456  23.174  18.245  1.00  0.00     0.091 C 
HETATM   25  O   LIG     1      25.420  24.307  19.999  1.00  0.00    -0.298 OA
ENDBRANCH   1  23
TORSDOF 1
ENDMDL
MODEL 9
REMARK VINA RESULT:      -5.2      1.390      6.824
REMARK  1 active torsions:
REMARK  status: ('A' for Active; 'I' for Inactive)
REMARK    1  A    between atoms: C_2  and  C_3 
ROOT
HETATM    1  C   LIG     1      23.762  19.817  19.489  1.00  0.00     0.024 C 
HETATM    2  C   LIG     1      23.167  20.064  20.916  1.00  0.00     0.018 C 
HETATM    3  C   LIG     1      23.708  21.418  21.414  1.00  0.00     0.007 C 
HETATM    4  C   LIG     1      24.584  21.937  20.272  1.00  0.00     0.003 C 
HETATM    5  C   LIG     1      25.633  23.068  20.510  1.00  0.00     0.018 C 
HETATM    6  C   LIG     1      26.338  23.130  21.833  1.00  0.00    -0.014 C 
HETATM    7  C   LIG     1      27.363  23.988  22.014  1.00  0.00    -0.058 C 
HETATM    8  C   LIG     1      27.958  24.745  20.842  1.00  0.00    -0.040 C 
HETATM    9  C   LIG     1      28.982  25.600  21.043  1.00  0.00     0.058 C 
HETATM   10  C   LIG     1      29.757  26.171  19.929  1.00  0.00     0.149 C 
HETATM   11  C   LIG     1      29.559  25.706  18.517  1.00  0.00     0.084 C 
HETATM   12  C   LIG     1      28.677  24.450  18.441  1.00  0.00     0.022 C 
HETATM   13  C   LIG     1      27.449  24.500  19.403  1.00  0.00    -0.012 C 
HETATM   14  C   LIG     1      26.703  23.120  19.383  1.00  0.00     0.006 C 
HETATM   15  C   LIG     1      26.105  22.639  18.041  1.00  0.00     0.007 C 
HETATM   16  C   LIG     1      25.683  21.142  18.121  1.00  0.00     0.011 C 
HETATM   17  C   LIG     1      25.082  20.698  19.513  1.00  0.00    -0.026 C 
HETATM   18  C   LIG     1      26.195  19.967  20.342  1.00  0.00     0.016 C 
HETATM   19  C   LIG     1      26.515  25.668  18.974  1.00  0.00     0.021 C 
HETATM   20  O   LIG     1      30.613  27.064  20.168  1.00  0.00    -0.293 OA
HETATM   21  C   LIG     1      27.977  24.091  23.391  1.00  0.00     0.048 C 
HETATM   22  C   LIG     1      24.035  18.303  19.292  1.00  0.00     0.024 C 
ENDROOT
BRANCH   1  23
HETATM   23  C   LIG     1      22.761  20.241  18.383  1.00  0.00     0.132 C 
HETATM   24  C   LIG     1      22.207  19.301  17.339  1.00  0.00     0.091 C 
HETATM   25  O   LIG     1      22.448  21.419  18.284  1.00  0.00    -0.298 OA
ENDBRANCH   1  23
TORSDOF 1
ENDMDL
MODEL 10
REMARK VINA RESULT:      -5.2      1.974      6.778
REMARK  1 active torsions:
REMARK  status: ('A' for Active; 'I' for Inactive)
REMARK    1  A    between atoms: C_2  and  C_3 
ROOT
HETATM    1  C   LIG     1      24.881  20.629  22.525  1.00  0.00     0.024 C 
HETATM    2  C   LIG     1      25.021  21.399  23.880  1.00  0.00     0.018 C 
HETATM    3  C   LIG     1      25.551  22.809  23.558  1.00  0.00     0.007 C 
HETATM    4  C   LIG     1      25.690  22.839  22.034  1.00  0.00     0.003 C 
HETATM    5  C   LIG     1      26.564  23.921  21.326  1.00  0.00     0.018 C 
HETATM    6  C   LIG     1      27.805  24.410  22.014  1.00  0.00    -0.014 C 
HETATM    7  C   LIG     1      28.666  25.218  21.363  1.00  0.00    -0.058 C 
HETATM    8  C   LIG     1      28.516  25.476  19.876  1.00  0.00    -0.040 C 
HETATM    9  C   LIG     1      29.387  26.288  19.242  1.00  0.00     0.058 C 
HETATM   10  C   LIG     1      29.446  26.382  17.774  1.00  0.00     0.149 C 
HETATM   11  C   LIG     1      28.656  25.457  16.897  1.00  0.00     0.084 C 
HETATM   12  C   LIG     1      28.021  24.307  17.694  1.00  0.00     0.022 C 
HETATM   13  C   LIG     1      27.414  24.764  19.058  1.00  0.00    -0.012 C 
HETATM   14  C   LIG     1      26.941  23.510  19.874  1.00  0.00     0.006 C 
HETATM   15  C   LIG     1      25.840  22.618  19.257  1.00  0.00     0.007 C 
HETATM   16  C   LIG     1      25.711  21.272  20.031  1.00  0.00     0.011 C 
HETATM   17  C   LIG     1      25.920  21.386  21.593  1.00  0.00    -0.026 C 
HETATM   18  C   LIG     1      27.381  20.937  21.949  1.00  0.00     0.016 C 
HETATM   19  C   LIG     1      26.245  25.752  18.787  1.00  0.00     0.021 C 
HETATM   20  O   LIG     1      30.184  27.252  17.241  1.00  0.00    -0.293 OA
HETATM   21  C   LIG     1      29.848  25.769  22.126  1.00  0.00     0.048 C 
HETATM   22  C   LIG     1      25.223  19.131  22.737  1.00  0.00     0.024 C 
ENDROOT
BRANCH   1  23
HETATM   23  C   LIG     1      23.425  20.686  21.994  1.00  0.00     0.132 C 
HETATM   24  C   LIG     1      22.576  21.934  21.986  1.00  0.00     0.091 C 
HETATM   25  O   LIG     1      22.886  19.651  21.628  1.00  0.00    -0.298 OA
ENDBRANCH   1  23
TORSDOF 1
ENDMDL
MODEL 11
REMARK VINA RESULT:      -5.1      3.952      5.718
REMARK  1 active torsions:
REMARK  status: ('A' for Active; 'I' for Inactive)
REMARK    1  A    between atoms: C_2  and  C_3 
ROOT
HETATM    1  C   LIG     1      26.614  22.824  19.251  1.00  0.00     0.024 C 
HETATM    2  C   LIG     1      25.169  22.730  18.657  1.00  0.00     0.018 C 
HETATM    3  C   LIG     1      24.187  22.642  19.841  1.00  0.00     0.007 C 
HETATM    4  C   LIG     1      25.070  22.704  21.090  1.00  0.00     0.003 C 
HETATM    5  C   LIG     1      24.530  22.246  22.481  1.00  0.00     0.018 C 
HETATM    6  C   LIG     1      23.555  21.108  22.537  1.00  0.00    -0.014 C 
HETATM    7  C   LIG     1      23.196  20.581  23.726  1.00  0.00    -0.058 C 
HETATM    8  C   LIG     1      23.919  20.976  24.999  1.00  0.00    -0.040 C 
HETATM    9  C   LIG     1      23.545  20.440  26.180  1.00  0.00     0.058 C 
HETATM   10  C   LIG     1      24.355  20.590  27.401  1.00  0.00     0.149 C 
HETATM   11  C   LIG     1      25.722  21.204  27.364  1.00  0.00     0.084 C 
HETATM   12  C   LIG     1      26.228  21.404  25.926  1.00  0.00     0.022 C 
HETATM   13  C   LIG     1      25.128  21.939  24.956  1.00  0.00    -0.012 C 
HETATM   14  C   LIG     1      25.680  21.954  23.487  1.00  0.00     0.006 C 
HETATM   15  C   LIG     1      26.907  22.843  23.184  1.00  0.00     0.007 C 
HETATM   16  C   LIG     1      27.508  22.510  21.785  1.00  0.00     0.011 C 
HETATM   17  C   LIG     1      26.441  22.148  20.678  1.00  0.00    -0.026 C 
HETATM   18  C   LIG     1      26.369  20.589  20.524  1.00  0.00     0.016 C 
HETATM   19  C   LIG     1      24.685  23.355  25.421  1.00  0.00     0.021 C 
HETATM   20  O   LIG     1      23.893  20.183  28.500  1.00  0.00    -0.293 OA
HETATM   21  C   LIG     1      22.134  19.506  23.743  1.00  0.00     0.048 C 
HETATM   22  C   LIG     1      27.608  22.069  18.330  1.00  0.00     0.024 C 
ENDROOT
BRANCH   1  23
HETATM   23  C   LIG     1      27.097  24.295  19.323  1.00  0.00     0.132 C 
HETATM   24  C   LIG     1      26.185  25.492  19.208  1.00  0.00     0.091 C 
HETATM   25  O   LIG     1      28.297  24.524  19.399  1.00  0.00    -0.298 OA
ENDBRANCH   1  23
TORSDOF 1
ENDMDL
MODEL 12
REMARK VINA RESULT:      -4.7      4.087      5.653
REMARK  1 active torsions:
REMARK  status: ('A' for Active; 'I' for Inactive)
REMARK    1  A    between atoms: C_2  and  C_3 
ROOT
HETATM    1  C   LIG     1      27.992  22.783  26.115  1.00  0.00     0.024 C 
HETATM    2  C   LIG     1      28.471  24.192  25.631  1.00  0.00     0.018 C 
HETATM    3  C   LIG     1      27.624  24.571  24.401  1.00  0.00     0.007 C 
HETATM    4  C   LIG     1      26.664  23.394  24.206  1.00  0.00     0.003 C 
HETATM    5  C   LIG     1      25.914  23.182  22.854  1.00  0.00     0.018 C 
HETATM    6  C   LIG     1      26.608  23.559  21.578  1.00  0.00    -0.014 C 
HETATM    7  C   LIG     1      26.059  23.238  20.388  1.00  0.00    -0.058 C 
HETATM    8  C   LIG     1      24.858  22.316  20.312  1.00  0.00    -0.040 C 
HETATM    9  C   LIG     1      24.321  22.007  19.113  1.00  0.00     0.058 C 
HETATM   10  C   LIG     1      23.323  20.936  18.952  1.00  0.00     0.149 C 
HETATM   11  C   LIG     1      22.970  20.018  20.084  1.00  0.00     0.084 C 
HETATM   12  C   LIG     1      23.924  20.179  21.278  1.00  0.00     0.022 C 
HETATM   13  C   LIG     1      24.276  21.667  21.589  1.00  0.00    -0.012 C 
HETATM   14  C   LIG     1      25.377  21.729  22.706  1.00  0.00     0.006 C 
HETATM   15  C   LIG     1      25.039  21.130  24.090  1.00  0.00     0.007 C 
HETATM   16  C   LIG     1      26.318  20.993  24.968  1.00  0.00     0.011 C 
HETATM   17  C   LIG     1      27.367  22.162  24.794  1.00  0.00    -0.026 C 
HETATM   18  C   LIG     1      28.513  21.684  23.836  1.00  0.00     0.016 C 
HETATM   19  C   LIG     1      22.981  22.418  22.012  1.00  0.00     0.021 C 
HETATM   20  O   LIG     1      22.761  20.781  17.836  1.00  0.00    -0.293 OA
HETATM   21  C   LIG     1      26.738  23.727  19.130  1.00  0.00     0.048 C 
HETATM   22  C   LIG     1      29.201  21.978  26.661  1.00  0.00     0.024 C 
ENDROOT
BRANCH   1  23
HETATM   23  C   LIG     1      26.973  22.905  27.278  1.00  0.00     0.132 C 
HETATM   24  C   LIG     1      26.185  24.157  27.584  1.00  0.00     0.091 C 
HETATM   25  O   LIG     1      26.841  21.969  28.053  1.00  0.00    -0.298 OA
ENDBRANCH   1  23
TORSDOF 1
ENDMDL
MODEL 13
REMARK VINA RESULT:      -4.7      7.254     11.051
REMARK  1 active torsions:
REMARK  status: ('A' for Active; 'I' for Inactive)
REMARK    1  A    between atoms: C_2  and  C_3 
ROOT
HETATM    1  C   LIG     1      26.096  21.715  26.674  1.00  0.00     0.024 C 
HETATM    2  C   LIG     1      27.049  21.335  25.493  1.00  0.00     0.018 C 
HETATM    3  C   LIG     1      28.268  22.275  25.561  1.00  0.00     0.007 C 
HETATM    4  C   LIG     1      28.013  23.163  26.781  1.00  0.00     0.003 C 
HETATM    5  C   LIG     1      28.787  24.504  26.978  1.00  0.00     0.018 C 
HETATM    6  C   LIG     1      29.159  25.306  25.767  1.00  0.00    -0.014 C 
HETATM    7  C   LIG     1      29.681  26.542  25.907  1.00  0.00    -0.058 C 
HETATM    8  C   LIG     1      29.703  27.226  27.260  1.00  0.00    -0.040 C 
HETATM    9  C   LIG     1      30.229  28.462  27.382  1.00  0.00     0.058 C 
HETATM   10  C   LIG     1      30.060  29.271  28.601  1.00  0.00     0.149 C 
HETATM   11  C   LIG     1      29.153  28.833  29.711  1.00  0.00     0.084 C 
HETATM   12  C   LIG     1      28.285  27.630  29.309  1.00  0.00     0.022 C 
HETATM   13  C   LIG     1      29.068  26.550  28.498  1.00  0.00    -0.012 C 
HETATM   14  C   LIG     1      28.074  25.448  27.988  1.00  0.00     0.006 C 
HETATM   15  C   LIG     1      27.298  24.628  29.044  1.00  0.00     0.007 C 
HETATM   16  C   LIG     1      26.149  23.810  28.385  1.00  0.00     0.011 C 
HETATM   17  C   LIG     1      26.489  23.228  26.956  1.00  0.00    -0.026 C 
HETATM   18  C   LIG     1      25.857  24.155  25.860  1.00  0.00     0.016 C 
HETATM   19  C   LIG     1      30.186  25.951  29.396  1.00  0.00     0.021 C 
HETATM   20  O   LIG     1      30.683  30.360  28.709  1.00  0.00    -0.293 OA
HETATM   21  C   LIG     1      30.137  27.273  24.666  1.00  0.00     0.048 C 
HETATM   22  C   LIG     1      24.620  21.534  26.234  1.00  0.00     0.024 C 
ENDROOT
BRANCH   1  23
HETATM   23  C   LIG     1      26.318  20.785  27.895  1.00  0.00     0.132 C 
HETATM   24  C   LIG     1      27.603  20.044  28.172  1.00  0.00     0.091 C 
HETATM   25  O   LIG     1      25.381  20.564  28.651  1.00  0.00    -0.298 OA
ENDBRANCH   1  23
TORSDOF 1
ENDMDL
MODEL 14
REMARK VINA RESULT:      -4.7      5.006      7.103
REMARK  1 active torsions:
REMARK  status: ('A' for Active; 'I' for Inactive)
REMARK    1  A    between atoms: C_2  and  C_3 
ROOT
HETATM    1  C   LIG     1      25.660  20.700  27.371  1.00  0.00     0.024 C 
HETATM    2  C   LIG     1      24.351  19.884  27.110  1.00  0.00     0.018 C 
HETATM    3  C   LIG     1      24.091  19.901  25.592  1.00  0.00     0.007 C 
HETATM    4  C   LIG     1      25.253  20.704  25.002  1.00  0.00     0.003 C 
HETATM    5  C   LIG     1      25.171  21.302  23.562  1.00  0.00     0.018 C 
HETATM    6  C   LIG     1      23.843  21.780  23.055  1.00  0.00    -0.014 C 
HETATM    7  C   LIG     1      23.765  22.448  21.886  1.00  0.00    -0.058 C 
HETATM    8  C   LIG     1      25.020  22.915  21.174  1.00  0.00    -0.040 C 
HETATM    9  C   LIG     1      24.923  23.582  20.005  1.00  0.00     0.058 C 
HETATM   10  C   LIG     1      26.074  24.269  19.396  1.00  0.00     0.149 C 
HETATM   11  C   LIG     1      27.378  24.408  20.123  1.00  0.00     0.084 C 
HETATM   12  C   LIG     1      27.266  23.986  21.597  1.00  0.00     0.022 C 
HETATM   13  C   LIG     1      26.415  22.694  21.805  1.00  0.00    -0.012 C 
HETATM   14  C   LIG     1      26.214  22.433  23.339  1.00  0.00     0.006 C 
HETATM   15  C   LIG     1      27.473  22.191  24.203  1.00  0.00     0.007 C 
HETATM   16  C   LIG     1      27.132  22.259  25.721  1.00  0.00     0.011 C 
HETATM   17  C   LIG     1      25.722  21.660  26.108  1.00  0.00    -0.026 C 
HETATM   18  C   LIG     1      24.696  22.834  26.280  1.00  0.00     0.016 C 
HETATM   19  C   LIG     1      27.122  21.501  21.103  1.00  0.00     0.021 C 
HETATM   20  O   LIG     1      25.958  24.761  18.243  1.00  0.00    -0.293 OA
HETATM   21  C   LIG     1      22.398  22.820  21.362  1.00  0.00     0.048 C 
HETATM   22  C   LIG     1      25.541  21.462  28.718  1.00  0.00     0.024 C 
ENDROOT
BRANCH   1  23
HETATM   23  C   LIG     1      26.891  19.764  27.492  1.00  0.00     0.132 C 
HETATM   24  C   LIG     1      26.957  18.374  26.907  1.00  0.00     0.091 C 
HETATM   25  O   LIG     1      27.847  20.124  28.165  1.00  0.00    -0.298 OA
ENDBRANCH   1  23
TORSDOF 1
ENDMDL
MODEL 15
REMARK VINA RESULT:      -4.6      4.786      6.874
REMARK  1 active torsions:
REMARK  status: ('A' for Active; 'I' for Inactive)
REMARK    1  A    between atoms: C_2  and  C_3 
ROOT
HETATM    1  C   LIG     1      23.679  21.458  19.782  1.00  0.00     0.024 C 
HETATM    2  C   LIG     1      22.551  22.434  20.256  1.00  0.00     0.018 C 
HETATM    3  C   LIG     1      22.861  22.825  21.714  1.00  0.00     0.007 C 
HETATM    4  C   LIG     1      24.161  22.092  22.051  1.00  0.00     0.003 C 
HETATM    5  C   LIG     1      24.611  21.887  23.532  1.00  0.00     0.018 C 
HETATM    6  C   LIG     1      23.560  21.680  24.582  1.00  0.00    -0.014 C 
HETATM    7  C   LIG     1      23.916  21.339  25.837  1.00  0.00    -0.058 C 
HETATM    8  C   LIG     1      25.346  20.951  26.161  1.00  0.00    -0.040 C 
HETATM    9  C   LIG     1      25.683  20.613  27.422  1.00  0.00     0.058 C 
HETATM   10  C   LIG     1      26.980  19.997  27.749  1.00  0.00     0.149 C 
HETATM   11  C   LIG     1      27.931  19.557  26.677  1.00  0.00     0.084 C 
HETATM   12  C   LIG     1      27.289  19.601  25.281  1.00  0.00     0.022 C 
HETATM   13  C   LIG     1      26.415  20.873  25.046  1.00  0.00    -0.012 C 
HETATM   14  C   LIG     1      25.669  20.756  23.670  1.00  0.00     0.006 C 
HETATM   15  C   LIG     1      26.527  20.652  22.388  1.00  0.00     0.007 C 
HETATM   16  C   LIG     1      25.657  20.236  21.165  1.00  0.00     0.011 C 
HETATM   17  C   LIG     1      24.200  20.847  21.152  1.00  0.00    -0.026 C 
HETATM   18  C   LIG     1      23.187  19.770  21.674  1.00  0.00     0.016 C 
HETATM   19  C   LIG     1      27.324  22.133  25.105  1.00  0.00     0.021 C 
HETATM   20  O   LIG     1      27.293  19.825  28.957  1.00  0.00    -0.293 OA
HETATM   21  C   LIG     1      22.834  21.242  26.887  1.00  0.00     0.048 C 
HETATM   22  C   LIG     1      23.082  20.396  18.822  1.00  0.00     0.024 C 
ENDROOT
BRANCH   1  23
HETATM   23  C   LIG     1      24.777  22.213  18.989  1.00  0.00     0.132 C 
HETATM   24  C   LIG     1      25.432  23.491  19.457  1.00  0.00     0.091 C 
HETATM   25  O   LIG     1      25.093  21.809  17.878  1.00  0.00    -0.298 OA
ENDBRANCH   1  23
TORSDOF 1
ENDMDL
MODEL 16
REMARK VINA RESULT:      -4.5      3.852      6.038
REMARK  1 active torsions:
REMARK  status: ('A' for Active; 'I' for Inactive)
REMARK    1  A    between atoms: C_2  and  C_3 
ROOT
HETATM    1  C   LIG     1      28.517  24.722  17.906  1.00  0.00     0.024 C 
HETATM    2  C   LIG     1      26.960  24.669  17.752  1.00  0.00     0.018 C 
HETATM    3  C   LIG     1      26.353  24.768  19.165  1.00  0.00     0.007 C 
HETATM    4  C   LIG     1      27.556  24.895  20.103  1.00  0.00     0.003 C 
HETATM    5  C   LIG     1      27.417  24.618  21.633  1.00  0.00     0.018 C 
HETATM    6  C   LIG     1      26.456  23.560  22.090  1.00  0.00    -0.014 C 
HETATM    7  C   LIG     1      26.430  23.182  23.384  1.00  0.00    -0.058 C 
HETATM    8  C   LIG     1      27.500  23.652  24.351  1.00  0.00    -0.040 C 
HETATM    9  C   LIG     1      27.458  23.265  25.643  1.00  0.00     0.058 C 
HETATM   10  C   LIG     1      28.586  23.480  26.564  1.00  0.00     0.149 C 
HETATM   11  C   LIG     1      29.909  23.992  26.077  1.00  0.00     0.084 C 
HETATM   12  C   LIG     1      29.992  24.011  24.542  1.00  0.00     0.022 C 
HETATM   13  C   LIG     1      28.683  24.520  23.861  1.00  0.00    -0.012 C 
HETATM   14  C   LIG     1      28.794  24.349  22.305  1.00  0.00     0.006 C 
HETATM   15  C   LIG     1      29.917  25.116  21.571  1.00  0.00     0.007 C 
HETATM   16  C   LIG     1      30.082  24.604  20.110  1.00  0.00     0.011 C 
HETATM   17  C   LIG     1      28.731  24.207  19.393  1.00  0.00    -0.026 C 
HETATM   18  C   LIG     1      28.560  22.649  19.447  1.00  0.00     0.016 C 
HETATM   19  C   LIG     1      28.444  26.003  24.264  1.00  0.00     0.021 C 
HETATM   20  O   LIG     1      28.441  23.219  27.787  1.00  0.00    -0.293 OA
HETATM   21  C   LIG     1      25.378  22.190  23.821  1.00  0.00     0.048 C 
HETATM   22  C   LIG     1      29.179  23.812  16.838  1.00  0.00     0.024 C 
ENDROOT
BRANCH   1  23
HETATM   23  C   LIG     1      29.056  26.157  17.669  1.00  0.00     0.132 C 
HETATM   24  C   LIG     1      28.434  27.402  18.253  1.00  0.00     0.091 C 
HETATM   25  O   LIG     1      29.995  26.319  16.902  1.00  0.00    -0.298 OA
ENDBRANCH   1  23
TORSDOF 1
ENDMDL
MODEL 17
REMARK VINA RESULT:      -4.5      4.022      6.286
REMARK  1 active torsions:
REMARK  status: ('A' for Active; 'I' for Inactive)
REMARK    1  A    between atoms: C_2  and  C_3 
ROOT
HETATM    1  C   LIG     1      25.369  20.716  18.540  1.00  0.00     0.024 C 
HETATM    2  C   LIG     1      23.837  20.703  18.220  1.00  0.00     0.018 C 
HETATM    3  C   LIG     1      23.089  21.000  19.534  1.00  0.00     0.007 C 
HETATM    4  C   LIG     1      24.190  21.196  20.579  1.00  0.00     0.003 C 
HETATM    5  C   LIG     1      23.875  21.116  22.106  1.00  0.00     0.018 C 
HETATM    6  C   LIG     1      22.818  20.161  22.575  1.00  0.00    -0.014 C 
HETATM    7  C   LIG     1      22.635  19.947  23.894  1.00  0.00    -0.058 C 
HETATM    8  C   LIG     1      23.619  20.493  24.912  1.00  0.00    -0.040 C 
HETATM    9  C   LIG     1      23.420  20.270  26.227  1.00  0.00     0.058 C 
HETATM   10  C   LIG     1      24.453  20.556  27.237  1.00  0.00     0.149 C 
HETATM   11  C   LIG     1      25.844  20.953  26.843  1.00  0.00     0.084 C 
HETATM   12  C   LIG     1      26.091  20.778  25.336  1.00  0.00     0.022 C 
HETATM   13  C   LIG     1      24.889  21.248  24.457  1.00  0.00    -0.012 C 
HETATM   14  C   LIG     1      25.157  20.881  22.955  1.00  0.00     0.006 C 
HETATM   15  C   LIG     1      26.390  21.508  22.265  1.00  0.00     0.007 C 
HETATM   16  C   LIG     1      26.683  20.813  20.903  1.00  0.00     0.011 C 
HETATM   17  C   LIG     1      25.397  20.382  20.092  1.00  0.00    -0.026 C 
HETATM   18  C   LIG     1      25.142  18.850  20.311  1.00  0.00     0.016 C 
HETATM   19  C   LIG     1      24.685  22.777  24.652  1.00  0.00     0.021 C 
HETATM   20  O   LIG     1      24.165  20.454  28.459  1.00  0.00    -0.293 OA
HETATM   21  C   LIG     1      21.493  19.058  24.325  1.00  0.00     0.048 C 
HETATM   22  C   LIG     1      26.093  19.656  17.669  1.00  0.00     0.024 C 
ENDROOT
BRANCH   1  23
HETATM   23  C   LIG     1      26.003  22.089  18.195  1.00  0.00     0.132 C 
HETATM   24  C   LIG     1      25.261  23.402  18.255  1.00  0.00     0.091 C 
HETATM   25  O   LIG     1      27.151  22.124  17.772  1.00  0.00    -0.298 OA
ENDBRANCH   1  23
TORSDOF 1
ENDMDL
MODEL 18
REMARK VINA RESULT:      -4.4     11.062     13.785
REMARK  1 active torsions:
REMARK  status: ('A' for Active; 'I' for Inactive)
REMARK    1  A    between atoms: C_2  and  C_3 
ROOT
HETATM    1  C   LIG     1      27.509  25.172  35.189  1.00  0.00     0.024 C 
HETATM    2  C   LIG     1      26.934  26.622  35.321  1.00  0.00     0.018 C 
HETATM    3  C   LIG     1      26.746  27.176  33.896  1.00  0.00     0.007 C 
HETATM    4  C   LIG     1      27.192  26.041  32.970  1.00  0.00     0.003 C 
HETATM    5  C   LIG     1      27.542  26.313  31.473  1.00  0.00     0.018 C 
HETATM    6  C   LIG     1      28.180  27.620  31.108  1.00  0.00    -0.014 C 
HETATM    7  C   LIG     1      28.644  27.822  29.857  1.00  0.00    -0.058 C 
HETATM    8  C   LIG     1      28.726  26.676  28.867  1.00  0.00    -0.040 C 
HETATM    9  C   LIG     1      29.192  26.896  27.620  1.00  0.00     0.058 C 
HETATM   10  C   LIG     1      29.526  25.795  26.701  1.00  0.00     0.149 C 
HETATM   11  C   LIG     1      29.526  24.367  27.157  1.00  0.00     0.084 C 
HETATM   12  C   LIG     1      29.390  24.247  28.683  1.00  0.00     0.022 C 
HETATM   13  C   LIG     1      28.345  25.238  29.288  1.00  0.00    -0.012 C 
HETATM   14  C   LIG     1      28.392  25.166  30.854  1.00  0.00     0.006 C 
HETATM   15  C   LIG     1      28.056  23.815  31.527  1.00  0.00     0.007 C 
HETATM   16  C   LIG     1      28.445  23.829  33.036  1.00  0.00     0.011 C 
HETATM   17  C   LIG     1      28.210  25.211  33.765  1.00  0.00    -0.026 C 
HETATM   18  C   LIG     1      29.575  25.977  33.864  1.00  0.00     0.016 C 
HETATM   19  C   LIG     1      26.935  24.889  28.735  1.00  0.00     0.021 C 
HETATM   20  O   LIG     1      29.829  26.059  25.508  1.00  0.00    -0.293 OA
HETATM   21  C   LIG     1      29.184  29.188  29.504  1.00  0.00     0.048 C 
HETATM   22  C   LIG     1      28.495  24.893  36.354  1.00  0.00     0.024 C 
ENDROOT
BRANCH   1  23
HETATM   23  C   LIG     1      26.383  24.111  35.291  1.00  0.00     0.132 C 
HETATM   24  C   LIG     1      26.627  22.634  35.486  1.00  0.00     0.091 C 
HETATM   25  O   LIG     1      25.221  24.460  35.129  1.00  0.00    -0.298 OA
ENDBRANCH   1  23
TORSDOF 1
ENDMDL
MODEL 19
REMARK VINA RESULT:      -4.3      3.718      4.746
REMARK  1 active torsions:
REMARK  status: ('A' for Active; 'I' for Inactive)
REMARK    1  A    between atoms: C_2  and  C_3 
ROOT
HETATM    1  C   LIG     1      27.855  22.833  25.443  1.00  0.00     0.024 C 
HETATM    2  C   LIG     1      26.600  23.327  26.238  1.00  0.00     0.018 C 
HETATM    3  C   LIG     1      25.353  22.768  25.527  1.00  0.00     0.007 C 
HETATM    4  C   LIG     1      25.901  21.952  24.354  1.00  0.00     0.003 C 
HETATM    5  C   LIG     1      24.986  21.551  23.154  1.00  0.00     0.018 C 
HETATM    6  C   LIG     1      23.905  22.498  22.724  1.00  0.00    -0.014 C 
HETATM    7  C   LIG     1      23.207  22.261  21.595  1.00  0.00    -0.058 C 
HETATM    8  C   LIG     1      23.633  21.168  20.634  1.00  0.00    -0.040 C 
HETATM    9  C   LIG     1      22.922  20.944  19.509  1.00  0.00     0.058 C 
HETATM   10  C   LIG     1      23.417  20.077  18.427  1.00  0.00     0.149 C 
HETATM   11  C   LIG     1      24.811  19.526  18.440  1.00  0.00     0.084 C 
HETATM   12  C   LIG     1      25.675  20.165  19.539  1.00  0.00     0.022 C 
HETATM   13  C   LIG     1      24.917  20.345  20.892  1.00  0.00    -0.012 C 
HETATM   14  C   LIG     1      25.812  21.150  21.898  1.00  0.00     0.006 C 
HETATM   15  C   LIG     1      27.169  20.537  22.311  1.00  0.00     0.007 C 
HETATM   16  C   LIG     1      28.054  21.583  23.052  1.00  0.00     0.011 C 
HETATM   17  C   LIG     1      27.259  22.571  23.994  1.00  0.00    -0.026 C 
HETATM   18  C   LIG     1      27.052  23.935  23.248  1.00  0.00     0.016 C 
HETATM   19  C   LIG     1      24.536  18.945  21.450  1.00  0.00     0.021 C 
HETATM   20  O   LIG     1      22.655  19.799  17.463  1.00  0.00    -0.293 OA
HETATM   21  C   LIG     1      22.059  23.183  21.254  1.00  0.00     0.048 C 
HETATM   22  C   LIG     1      28.953  23.928  25.467  1.00  0.00     0.024 C 
ENDROOT
BRANCH   1  23
HETATM   23  C   LIG     1      28.469  21.567  26.093  1.00  0.00     0.132 C 
HETATM   24  C   LIG     1      27.734  20.671  27.061  1.00  0.00     0.091 C 
HETATM   25  O   LIG     1      29.645  21.302  25.883  1.00  0.00    -0.298 OA
ENDBRANCH   1  23
TORSDOF 1
ENDMDL
