MODEL 1
REMARK VINA RESULT:      -5.0      0.000      0.000
REMARK  1 active torsions:
REMARK  status: ('A' for Active; 'I' for Inactive)
REMARK    1  A    between atoms: C_1  and  C_2 
ROOT
HETATM    1  C   LIG     1      17.618  36.899  25.473  1.00  0.00     0.112 A 
HETATM    2  C   LIG     1      18.317  36.354  26.530  1.00  0.00     0.042 A 
HETATM    3  C   LIG     1      18.224  34.988  26.368  1.00  0.00     0.027 A 
HETATM    4  C   LIG     1      17.475  34.787  25.226  1.00  0.00     0.142 A 
HETATM    5  O   LIG     1      17.129  35.946  24.714  1.00  0.00    -0.320 OA
ENDROOT
BRANCH   1   6
HETATM    6  C   LIG     1      17.438  38.329  25.218  1.00  0.00     0.295 C 
HETATM    7  O   LIG     1      16.658  38.719  24.311  1.00  0.00    -0.299 OA
ENDBRANCH   1   6
TORSDOF 1
ENDMDL
MODEL 2
REMARK VINA RESULT:      -4.3      4.673      5.439
REMARK  1 active torsions:
REMARK  status: ('A' for Active; 'I' for Inactive)
REMARK    1  A    between atoms: C_1  and  C_2 
ROOT
HETATM    1  C   LIG     1      18.750  38.332  20.591  1.00  0.00     0.112 A 
HETATM    2  C   LIG     1      18.456  39.343  21.483  1.00  0.00     0.042 A 
HETATM    3  C   LIG     1      17.475  38.833  22.306  1.00  0.00     0.027 A 
HETATM    4  C   LIG     1      17.232  37.548  21.865  1.00  0.00     0.142 A 
HETATM    5  O   LIG     1      18.009  37.278  20.841  1.00  0.00    -0.320 OA
ENDROOT
BRANCH   1   6
HETATM    6  C   LIG     1      19.742  38.407  19.517  1.00  0.00     0.295 C 
HETATM    7  O   LIG     1      20.417  39.455  19.348  1.00  0.00    -0.299 OA
ENDBRANCH   1   6
TORSDOF 1
ENDMDL
MODEL 3
REMARK VINA RESULT:      -4.3      2.431      2.977
REMARK  1 active torsions:
REMARK  status: ('A' for Active; 'I' for Inactive)
REMARK    1  A    between atoms: C_1  and  C_2 
ROOT
HETATM    1  C   LIG     1      17.062  36.685  23.617  1.00  0.00     0.112 A 
HETATM    2  C   LIG     1      17.014  35.321  23.412  1.00  0.00     0.042 A 
HETATM    3  C   LIG     1      16.977  35.157  22.044  1.00  0.00     0.027 A 
HETATM    4  C   LIG     1      17.003  36.426  21.502  1.00  0.00     0.142 A 
HETATM    5  O   LIG     1      17.054  37.317  22.467  1.00  0.00    -0.320 OA
ENDROOT
BRANCH   1   6
HETATM    6  C   LIG     1      17.115  37.348  24.921  1.00  0.00     0.295 C 
HETATM    7  O   LIG     1      16.970  38.595  25.005  1.00  0.00    -0.299 OA
ENDBRANCH   1   6
TORSDOF 1
ENDMDL
MODEL 4
REMARK VINA RESULT:      -4.2      3.454      4.484
REMARK  1 active torsions:
REMARK  status: ('A' for Active; 'I' for Inactive)
REMARK    1  A    between atoms: C_1  and  C_2 
ROOT
HETATM    1  C   LIG     1      17.304  37.884  22.170  1.00  0.00     0.112 A 
HETATM    2  C   LIG     1      17.866  39.143  22.223  1.00  0.00     0.042 A 
HETATM    3  C   LIG     1      18.699  39.219  21.126  1.00  0.00     0.027 A 
HETATM    4  C   LIG     1      18.592  38.006  20.477  1.00  0.00     0.142 A 
HETATM    5  O   LIG     1      17.752  37.231  21.124  1.00  0.00    -0.320 OA
ENDROOT
BRANCH   1   6
HETATM    6  C   LIG     1      16.344  37.341  23.133  1.00  0.00     0.295 C 
HETATM    7  O   LIG     1      15.934  38.048  24.090  1.00  0.00    -0.299 OA
ENDBRANCH   1   6
TORSDOF 1
ENDMDL
MODEL 5
REMARK VINA RESULT:      -4.2      1.550      3.353
REMARK  1 active torsions:
REMARK  status: ('A' for Active; 'I' for Inactive)
REMARK    1  A    between atoms: C_1  and  C_2 
ROOT
HETATM    1  C   LIG     1      17.391  36.240  25.238  1.00  0.00     0.112 A 
HETATM    2  C   LIG     1      17.142  36.478  23.902  1.00  0.00     0.042 A 
HETATM    3  C   LIG     1      17.093  37.850  23.776  1.00  0.00     0.027 A 
HETATM    4  C   LIG     1      17.314  38.361  25.040  1.00  0.00     0.142 A 
HETATM    5  O   LIG     1      17.489  37.375  25.890  1.00  0.00    -0.320 OA
ENDROOT
BRANCH   1   6
HETATM    6  C   LIG     1      17.531  34.920  25.855  1.00  0.00     0.295 C 
HETATM    7  O   LIG     1      18.596  34.605  26.448  1.00  0.00    -0.299 OA
ENDBRANCH   1   6
TORSDOF 1
ENDMDL
MODEL 6
REMARK VINA RESULT:      -4.1      1.856      2.630
REMARK  1 active torsions:
REMARK  status: ('A' for Active; 'I' for Inactive)
REMARK    1  A    between atoms: C_1  and  C_2 
ROOT
HETATM    1  C   LIG     1      16.857  37.107  23.885  1.00  0.00     0.112 A 
HETATM    2  C   LIG     1      17.454  36.192  24.727  1.00  0.00     0.042 A 
HETATM    3  C   LIG     1      17.781  36.898  25.865  1.00  0.00     0.027 A 
HETATM    4  C   LIG     1      17.364  38.196  25.646  1.00  0.00     0.142 A 
HETATM    5  O   LIG     1      16.817  38.289  24.456  1.00  0.00    -0.320 OA
ENDROOT
BRANCH   1   6
HETATM    6  C   LIG     1      16.338  36.820  22.547  1.00  0.00     0.295 C 
HETATM    7  O   LIG     1      15.156  37.128  22.245  1.00  0.00    -0.299 OA
ENDBRANCH   1   6
TORSDOF 1
ENDMDL
MODEL 7
REMARK VINA RESULT:      -4.0      9.773     10.601
REMARK  1 active torsions:
REMARK  status: ('A' for Active; 'I' for Inactive)
REMARK    1  A    between atoms: C_1  and  C_2 
ROOT
HETATM    1  C   LIG     1      14.592  32.579  16.541  1.00  0.00     0.112 A 
HETATM    2  C   LIG     1      13.416  31.979  16.940  1.00  0.00     0.042 A 
HETATM    3  C   LIG     1      13.317  30.827  16.188  1.00  0.00     0.027 A 
HETATM    4  C   LIG     1      14.435  30.798  15.380  1.00  0.00     0.142 A 
HETATM    5  O   LIG     1      15.177  31.857  15.614  1.00  0.00    -0.320 OA
ENDROOT
BRANCH   1   6
HETATM    6  C   LIG     1      15.126  33.837  17.064  1.00  0.00     0.295 C 
HETATM    7  O   LIG     1      15.839  34.576  16.336  1.00  0.00    -0.299 OA
ENDBRANCH   1   6
TORSDOF 1
ENDMDL
MODEL 8
REMARK VINA RESULT:      -3.9     11.361     12.273
REMARK  1 active torsions:
REMARK  status: ('A' for Active; 'I' for Inactive)
REMARK    1  A    between atoms: C_1  and  C_2 
ROOT
HETATM    1  C   LIG     1      15.825  31.542  14.799  1.00  0.00     0.112 A 
HETATM    2  C   LIG     1      14.656  31.112  15.391  1.00  0.00     0.042 A 
HETATM    3  C   LIG     1      14.229  30.045  14.630  1.00  0.00     0.027 A 
HETATM    4  C   LIG     1      15.163  29.892  13.624  1.00  0.00     0.142 A 
HETATM    5  O   LIG     1      16.103  30.800  13.753  1.00  0.00    -0.320 OA
ENDROOT
BRANCH   1   6
HETATM    6  C   LIG     1      16.650  32.661  15.258  1.00  0.00     0.295 C 
HETATM    7  O   LIG     1      17.906  32.579  15.226  1.00  0.00    -0.299 OA
ENDBRANCH   1   6
TORSDOF 1
ENDMDL
MODEL 9
REMARK VINA RESULT:      -3.9      3.807      4.948
REMARK  1 active torsions:
REMARK  status: ('A' for Active; 'I' for Inactive)
REMARK    1  A    between atoms: C_1  and  C_2 
ROOT
HETATM    1  C   LIG     1      17.243  37.103  21.583  1.00  0.00     0.112 A 
HETATM    2  C   LIG     1      18.206  37.946  21.067  1.00  0.00     0.042 A 
HETATM    3  C   LIG     1      18.067  39.130  21.760  1.00  0.00     0.027 A 
HETATM    4  C   LIG     1      17.030  38.936  22.650  1.00  0.00     0.142 A 
HETATM    5  O   LIG     1      16.560  37.716  22.521  1.00  0.00    -0.320 OA
ENDROOT
BRANCH   1   6
HETATM    6  C   LIG     1      17.005  35.723  21.158  1.00  0.00     0.295 C 
HETATM    7  O   LIG     1      16.712  35.469  19.960  1.00  0.00    -0.299 OA
ENDBRANCH   1   6
TORSDOF 1
ENDMDL
MODEL 10
REMARK VINA RESULT:      -3.8     11.071     12.119
REMARK  1 active torsions:
REMARK  status: ('A' for Active; 'I' for Inactive)
REMARK    1  A    between atoms: C_1  and  C_2 
ROOT
HETATM    1  C   LIG     1      14.481  31.192  15.637  1.00  0.00     0.112 A 
HETATM    2  C   LIG     1      14.269  30.154  14.753  1.00  0.00     0.042 A 
HETATM    3  C   LIG     1      15.119  30.394  13.695  1.00  0.00     0.027 A 
HETATM    4  C   LIG     1      15.793  31.560  13.998  1.00  0.00     0.142 A 
HETATM    5  O   LIG     1      15.391  32.012  15.164  1.00  0.00    -0.320 OA
ENDROOT
BRANCH   1   6
HETATM    6  C   LIG     1      13.800  31.369  16.921  1.00  0.00     0.295 C 
HETATM    7  O   LIG     1      12.543  31.393  16.975  1.00  0.00    -0.299 OA
ENDBRANCH   1   6
TORSDOF 1
ENDMDL
MODEL 11
REMARK VINA RESULT:      -3.8     11.076     12.188
REMARK  1 active torsions:
REMARK  status: ('A' for Active; 'I' for Inactive)
REMARK    1  A    between atoms: C_1  and  C_2 
ROOT
HETATM    1  C   LIG     1      14.395  30.741  15.222  1.00  0.00     0.112 A 
HETATM    2  C   LIG     1      13.117  30.534  15.700  1.00  0.00     0.042 A 
HETATM    3  C   LIG     1      12.950  31.454  16.713  1.00  0.00     0.027 A 
HETATM    4  C   LIG     1      14.133  32.161  16.789  1.00  0.00     0.142 A 
HETATM    5  O   LIG     1      14.975  31.713  15.886  1.00  0.00    -0.320 OA
ENDROOT
BRANCH   1   6
HETATM    6  C   LIG     1      15.027  29.995  14.132  1.00  0.00     0.295 C 
HETATM    7  O   LIG     1      15.861  30.559  13.377  1.00  0.00    -0.299 OA
ENDBRANCH   1   6
TORSDOF 1
ENDMDL
MODEL 12
REMARK VINA RESULT:      -3.8      3.011      3.625
REMARK  1 active torsions:
REMARK  status: ('A' for Active; 'I' for Inactive)
REMARK    1  A    between atoms: C_1  and  C_2 
ROOT
HETATM    1  C   LIG     1      16.921  36.049  22.352  1.00  0.00     0.112 A 
HETATM    2  C   LIG     1      17.058  35.078  23.323  1.00  0.00     0.042 A 
HETATM    3  C   LIG     1      17.208  35.764  24.510  1.00  0.00     0.027 A 
HETATM    4  C   LIG     1      17.154  37.105  24.189  1.00  0.00     0.142 A 
HETATM    5  O   LIG     1      16.981  37.243  22.894  1.00  0.00    -0.320 OA
ENDROOT
BRANCH   1   6
HETATM    6  C   LIG     1      16.733  35.801  20.922  1.00  0.00     0.295 C 
HETATM    7  O   LIG     1      17.639  36.103  20.101  1.00  0.00    -0.299 OA
ENDBRANCH   1   6
TORSDOF 1
ENDMDL
MODEL 13
REMARK VINA RESULT:      -3.7      9.590     10.583
REMARK  1 active torsions:
REMARK  status: ('A' for Active; 'I' for Inactive)
REMARK    1  A    between atoms: C_1  and  C_2 
ROOT
HETATM    1  C   LIG     1      15.664  32.276  15.981  1.00  0.00     0.112 A 
HETATM    2  C   LIG     1      14.557  31.469  15.821  1.00  0.00     0.042 A 
HETATM    3  C   LIG     1      13.912  31.485  17.039  1.00  0.00     0.027 A 
HETATM    4  C   LIG     1      14.664  32.298  17.863  1.00  0.00     0.142 A 
HETATM    5  O   LIG     1      15.703  32.756  17.202  1.00  0.00    -0.320 OA
ENDROOT
BRANCH   1   6
HETATM    6  C   LIG     1      16.661  32.568  14.949  1.00  0.00     0.295 C 
HETATM    7  O   LIG     1      17.888  32.560  15.231  1.00  0.00    -0.299 OA
ENDBRANCH   1   6
TORSDOF 1
ENDMDL
MODEL 14
REMARK VINA RESULT:      -3.6     10.959     11.690
REMARK  1 active torsions:
REMARK  status: ('A' for Active; 'I' for Inactive)
REMARK    1  A    between atoms: C_1  and  C_2 
ROOT
HETATM    1  C   LIG     1      16.963  33.090  14.325  1.00  0.00     0.112 A 
HETATM    2  C   LIG     1      16.131  32.089  13.869  1.00  0.00     0.042 A 
HETATM    3  C   LIG     1      15.429  31.661  14.977  1.00  0.00     0.027 A 
HETATM    4  C   LIG     1      15.878  32.425  16.035  1.00  0.00     0.142 A 
HETATM    5  O   LIG     1      16.793  33.269  15.614  1.00  0.00    -0.320 OA
ENDROOT
BRANCH   1   6
HETATM    6  C   LIG     1      17.906  33.852  13.505  1.00  0.00     0.295 C 
HETATM    7  O   LIG     1      17.531  34.899  12.914  1.00  0.00    -0.299 OA
ENDBRANCH   1   6
TORSDOF 1
ENDMDL
MODEL 15
REMARK VINA RESULT:      -3.5      2.042      3.285
REMARK  1 active torsions:
REMARK  status: ('A' for Active; 'I' for Inactive)
REMARK    1  A    between atoms: C_1  and  C_2 
ROOT
HETATM    1  C   LIG     1      17.262  36.914  24.471  1.00  0.00     0.112 A 
HETATM    2  C   LIG     1      16.778  36.195  23.397  1.00  0.00     0.042 A 
HETATM    3  C   LIG     1      16.309  37.137  22.506  1.00  0.00     0.027 A 
HETATM    4  C   LIG     1      16.535  38.367  23.092  1.00  0.00     0.142 A 
HETATM    5  O   LIG     1      17.106  38.200  24.263  1.00  0.00    -0.320 OA
ENDROOT
BRANCH   1   6
HETATM    6  C   LIG     1      17.867  36.341  25.674  1.00  0.00     0.295 C 
HETATM    7  O   LIG     1      18.641  37.032  26.386  1.00  0.00    -0.299 OA
ENDBRANCH   1   6
TORSDOF 1
ENDMDL
MODEL 16
REMARK VINA RESULT:      -3.5      7.678      8.465
REMARK  1 active torsions:
REMARK  status: ('A' for Active; 'I' for Inactive)
REMARK    1  A    between atoms: C_1  and  C_2 
ROOT
HETATM    1  C   LIG     1      14.871  32.770  18.103  1.00  0.00     0.112 A 
HETATM    2  C   LIG     1      15.464  33.379  19.191  1.00  0.00     0.042 A 
HETATM    3  C   LIG     1      15.331  32.483  20.231  1.00  0.00     0.027 A 
HETATM    4  C   LIG     1      14.667  31.389  19.714  1.00  0.00     0.142 A 
HETATM    5  O   LIG     1      14.407  31.590  18.442  1.00  0.00    -0.320 OA
ENDROOT
BRANCH   1   6
HETATM    6  C   LIG     1      14.768  33.342  16.760  1.00  0.00     0.295 C 
HETATM    7  O   LIG     1      15.192  34.505  16.530  1.00  0.00    -0.299 OA
ENDBRANCH   1   6
TORSDOF 1
ENDMDL
MODEL 17
REMARK VINA RESULT:      -3.5     12.169     13.368
REMARK  1 active torsions:
REMARK  status: ('A' for Active; 'I' for Inactive)
REMARK    1  A    between atoms: C_1  and  C_2 
ROOT
HETATM    1  C   LIG     1      15.214  29.788  14.157  1.00  0.00     0.112 A 
HETATM    2  C   LIG     1      14.225  30.139  15.052  1.00  0.00     0.042 A 
HETATM    3  C   LIG     1      14.589  31.378  15.535  1.00  0.00     0.027 A 
HETATM    4  C   LIG     1      15.774  31.703  14.906  1.00  0.00     0.142 A 
HETATM    5  O   LIG     1      16.121  30.735  14.089  1.00  0.00    -0.320 OA
ENDROOT
BRANCH   1   6
HETATM    6  C   LIG     1      15.261  28.545  13.385  1.00  0.00     0.295 C 
HETATM    7  O   LIG     1      15.644  27.476  13.926  1.00  0.00    -0.299 OA
ENDBRANCH   1   6
TORSDOF 1
ENDMDL
MODEL 18
REMARK VINA RESULT:      -3.4     11.649     12.541
REMARK  1 active torsions:
REMARK  status: ('A' for Active; 'I' for Inactive)
REMARK    1  A    between atoms: C_1  and  C_2 
ROOT
HETATM    1  C   LIG     1      16.165  31.830  14.096  1.00  0.00     0.112 A 
HETATM    2  C   LIG     1      16.360  32.571  15.243  1.00  0.00     0.042 A 
HETATM    3  C   LIG     1      17.273  33.546  14.901  1.00  0.00     0.027 A 
HETATM    4  C   LIG     1      17.576  33.339  13.570  1.00  0.00     0.142 A 
HETATM    5  O   LIG     1      16.899  32.308  13.118  1.00  0.00    -0.320 OA
ENDROOT
BRANCH   1   6
HETATM    6  C   LIG     1      15.272  30.677  13.968  1.00  0.00     0.295 C 
HETATM    7  O   LIG     1      15.700  29.515  14.193  1.00  0.00    -0.299 OA
ENDBRANCH   1   6
TORSDOF 1
ENDMDL
MODEL 19
REMARK VINA RESULT:      -3.3      5.772      7.024
REMARK  1 active torsions:
REMARK  status: ('A' for Active; 'I' for Inactive)
REMARK    1  A    between atoms: C_1  and  C_2 
ROOT
HETATM    1  C   LIG     1      15.290  33.381  20.120  1.00  0.00     0.112 A 
HETATM    2  C   LIG     1      15.845  34.518  19.569  1.00  0.00     0.042 A 
HETATM    3  C   LIG     1      15.646  35.513  20.501  1.00  0.00     0.027 A 
HETATM    4  C   LIG     1      14.983  34.923  21.559  1.00  0.00     0.142 A 
HETATM    5  O   LIG     1      14.785  33.650  21.302  1.00  0.00    -0.320 OA
ENDROOT
BRANCH   1   6
HETATM    6  C   LIG     1      15.259  32.059  19.493  1.00  0.00     0.295 C 
HETATM    7  O   LIG     1      14.549  31.141  19.980  1.00  0.00    -0.299 OA
ENDBRANCH   1   6
TORSDOF 1
ENDMDL
MODEL 20
REMARK VINA RESULT:      -3.3     13.429     14.621
REMARK  1 active torsions:
REMARK  status: ('A' for Active; 'I' for Inactive)
REMARK    1  A    between atoms: C_1  and  C_2 
ROOT
HETATM    1  C   LIG     1      13.700  28.378  13.977  1.00  0.00     0.112 A 
HETATM    2  C   LIG     1      13.230  29.554  14.525  1.00  0.00     0.042 A 
HETATM    3  C   LIG     1      14.339  30.360  14.672  1.00  0.00     0.027 A 
HETATM    4  C   LIG     1      15.412  29.627  14.207  1.00  0.00     0.142 A 
HETATM    5  O   LIG     1      14.999  28.449  13.798  1.00  0.00    -0.320 OA
ENDROOT
BRANCH   1   6
HETATM    6  C   LIG     1      12.884  27.212  13.637  1.00  0.00     0.295 C 
HETATM    7  O   LIG     1      11.697  27.359  13.246  1.00  0.00    -0.299 OA
ENDBRANCH   1   6
TORSDOF 1
ENDMDL
