MODEL 1
REMARK VINA RESULT:      -7.3      0.000      0.000
REMARK  1 active torsions:
REMARK  status: ('A' for Active; 'I' for Inactive)
REMARK    1  A    between atoms: C_2  and  C_4 
ROOT
HETATM    1  C   LIG     1      17.367  36.705  24.080  1.00  0.00    -0.051 A 
HETATM    2  C   LIG     1      17.989  37.518  25.054  1.00  0.00     0.008 A 
HETATM    3  C   LIG     1      18.391  36.991  26.284  1.00  0.00     0.001 A 
HETATM    4  C   LIG     1      18.182  35.642  26.571  1.00  0.00     0.000 A 
HETATM    5  C   LIG     1      17.570  34.819  25.628  1.00  0.00     0.001 A 
HETATM    6  C   LIG     1      17.165  35.338  24.394  1.00  0.00     0.008 A 
ENDROOT
BRANCH   1   7
HETATM    7  C   LIG     1      16.937  37.322  22.733  1.00  0.00    -0.024 C 
HETATM    8  C   LIG     1      17.779  38.558  22.335  1.00  0.00     0.019 C 
HETATM    9  C   LIG     1      17.091  36.270  21.612  1.00  0.00     0.019 C 
HETATM   10  C   LIG     1      15.461  37.768  22.818  1.00  0.00     0.019 C 
ENDBRANCH   1   7
TORSDOF 1
ENDMDL
MODEL 2
REMARK VINA RESULT:      -7.0      2.228      4.509
REMARK  1 active torsions:
REMARK  status: ('A' for Active; 'I' for Inactive)
REMARK    1  A    between atoms: C_2  and  C_4 
ROOT
HETATM    1  C   LIG     1      17.553  37.227  21.273  1.00  0.00    -0.051 A 
HETATM    2  C   LIG     1      17.910  38.561  21.576  1.00  0.00     0.008 A 
HETATM    3  C   LIG     1      18.899  39.227  20.848  1.00  0.00     0.001 A 
HETATM    4  C   LIG     1      19.554  38.580  19.800  1.00  0.00     0.000 A 
HETATM    5  C   LIG     1      19.221  37.265  19.481  1.00  0.00     0.001 A 
HETATM    6  C   LIG     1      18.232  36.591  20.205  1.00  0.00     0.008 A 
ENDROOT
BRANCH   1   7
HETATM    7  C   LIG     1      16.456  36.524  22.099  1.00  0.00    -0.024 C 
HETATM    8  C   LIG     1      17.023  35.516  23.128  1.00  0.00     0.019 C 
HETATM    9  C   LIG     1      15.643  37.581  22.878  1.00  0.00     0.019 C 
HETATM   10  C   LIG     1      15.515  35.748  21.152  1.00  0.00     0.019 C 
ENDBRANCH   1   7
TORSDOF 1
ENDMDL
MODEL 3
REMARK VINA RESULT:      -5.9      2.821      4.251
REMARK  1 active torsions:
REMARK  status: ('A' for Active; 'I' for Inactive)
REMARK    1  A    between atoms: C_2  and  C_4 
ROOT
HETATM    1  C   LIG     1      18.098  37.819  20.807  1.00  0.00    -0.051 A 
HETATM    2  C   LIG     1      17.780  38.950  21.592  1.00  0.00     0.008 A 
HETATM    3  C   LIG     1      16.804  38.886  22.590  1.00  0.00     0.001 A 
HETATM    4  C   LIG     1      16.123  37.693  22.828  1.00  0.00     0.000 A 
HETATM    5  C   LIG     1      16.417  36.562  22.067  1.00  0.00     0.001 A 
HETATM    6  C   LIG     1      17.392  36.618  21.066  1.00  0.00     0.008 A 
ENDROOT
BRANCH   1   7
HETATM    7  C   LIG     1      19.182  37.929  19.714  1.00  0.00    -0.024 C 
HETATM    8  C   LIG     1      18.623  38.394  18.349  1.00  0.00     0.019 C 
HETATM    9  C   LIG     1      20.254  38.950  20.155  1.00  0.00     0.019 C 
HETATM   10  C   LIG     1      19.844  36.549  19.505  1.00  0.00     0.019 C 
ENDBRANCH   1   7
TORSDOF 1
ENDMDL
MODEL 4
REMARK VINA RESULT:      -5.2      8.404     10.927
REMARK  1 active torsions:
REMARK  status: ('A' for Active; 'I' for Inactive)
REMARK    1  A    between atoms: C_2  and  C_4 
ROOT
HETATM    1  C   LIG     1      14.514  31.454  15.682  1.00  0.00    -0.051 A 
HETATM    2  C   LIG     1      15.602  31.901  14.898  1.00  0.00     0.008 A 
HETATM    3  C   LIG     1      16.040  31.172  13.789  1.00  0.00     0.001 A 
HETATM    4  C   LIG     1      15.404  29.983  13.435  1.00  0.00     0.000 A 
HETATM    5  C   LIG     1      14.329  29.520  14.192  1.00  0.00     0.001 A 
HETATM    6  C   LIG     1      13.884  30.243  15.304  1.00  0.00     0.008 A 
ENDROOT
BRANCH   1   7
HETATM    7  C   LIG     1      14.059  32.285  16.899  1.00  0.00    -0.024 C 
HETATM    8  C   LIG     1      14.436  31.638  18.253  1.00  0.00     0.019 C 
HETATM    9  C   LIG     1      14.722  33.680  16.846  1.00  0.00     0.019 C 
HETATM   10  C   LIG     1      12.523  32.446  16.868  1.00  0.00     0.019 C 
ENDBRANCH   1   7
TORSDOF 1
ENDMDL
MODEL 5
REMARK VINA RESULT:      -5.0     12.177     13.492
REMARK  1 active torsions:
REMARK  status: ('A' for Active; 'I' for Inactive)
REMARK    1  A    between atoms: C_2  and  C_4 
ROOT
HETATM    1  C   LIG     1      21.883  35.146  11.816  1.00  0.00    -0.051 A 
HETATM    2  C   LIG     1      22.441  35.051  13.111  1.00  0.00     0.008 A 
HETATM    3  C   LIG     1      23.540  35.829  13.483  1.00  0.00     0.001 A 
HETATM    4  C   LIG     1      24.108  36.719  12.573  1.00  0.00     0.000 A 
HETATM    5  C   LIG     1      23.577  36.833  11.289  1.00  0.00     0.001 A 
HETATM    6  C   LIG     1      22.477  36.058  10.909  1.00  0.00     0.008 A 
ENDROOT
BRANCH   1   7
HETATM    7  C   LIG     1      20.668  34.271  11.442  1.00  0.00    -0.024 C 
HETATM    8  C   LIG     1      21.068  32.902  10.843  1.00  0.00     0.019 C 
HETATM    9  C   LIG     1      19.821  34.000  12.706  1.00  0.00     0.019 C 
HETATM   10  C   LIG     1      19.805  35.007  10.395  1.00  0.00     0.019 C 
ENDBRANCH   1   7
TORSDOF 1
ENDMDL
MODEL 6
REMARK VINA RESULT:      -4.7      8.128     10.690
REMARK  1 active torsions:
REMARK  status: ('A' for Active; 'I' for Inactive)
REMARK    1  A    between atoms: C_2  and  C_4 
ROOT
HETATM    1  C   LIG     1      14.571  31.627  15.920  1.00  0.00    -0.051 A 
HETATM    2  C   LIG     1      15.287  31.076  14.833  1.00  0.00     0.008 A 
HETATM    3  C   LIG     1      14.751  30.039  14.065  1.00  0.00     0.001 A 
HETATM    4  C   LIG     1      13.489  29.527  14.363  1.00  0.00     0.000 A 
HETATM    5  C   LIG     1      12.762  30.052  15.430  1.00  0.00     0.001 A 
HETATM    6  C   LIG     1      13.291  31.090  16.203  1.00  0.00     0.008 A 
ENDROOT
BRANCH   1   7
HETATM    7  C   LIG     1      15.196  32.772  16.744  1.00  0.00    -0.024 C 
HETATM    8  C   LIG     1      14.275  34.009  16.861  1.00  0.00     0.019 C 
HETATM    9  C   LIG     1      15.494  32.272  18.175  1.00  0.00     0.019 C 
HETATM   10  C   LIG     1      16.511  33.228  16.076  1.00  0.00     0.019 C 
ENDBRANCH   1   7
TORSDOF 1
ENDMDL
MODEL 7
REMARK VINA RESULT:      -4.6      9.198     10.456
REMARK  1 active torsions:
REMARK  status: ('A' for Active; 'I' for Inactive)
REMARK    1  A    between atoms: C_2  and  C_4 
ROOT
HETATM    1  C   LIG     1      15.530  32.178  15.379  1.00  0.00    -0.051 A 
HETATM    2  C   LIG     1      15.021  31.042  14.708  1.00  0.00     0.008 A 
HETATM    3  C   LIG     1      13.893  30.368  15.185  1.00  0.00     0.001 A 
HETATM    4  C   LIG     1      13.248  30.810  16.339  1.00  0.00     0.000 A 
HETATM    5  C   LIG     1      13.730  31.927  17.019  1.00  0.00     0.001 A 
HETATM    6  C   LIG     1      14.858  32.608  16.549  1.00  0.00     0.008 A 
ENDROOT
BRANCH   1   7
HETATM    7  C   LIG     1      16.777  32.896  14.822  1.00  0.00    -0.024 C 
HETATM    8  C   LIG     1      16.850  34.388  15.226  1.00  0.00     0.019 C 
HETATM    9  C   LIG     1      18.051  32.203  15.356  1.00  0.00     0.019 C 
HETATM   10  C   LIG     1      16.765  32.827  13.280  1.00  0.00     0.019 C 
ENDBRANCH   1   7
TORSDOF 1
ENDMDL
MODEL 8
REMARK VINA RESULT:      -4.6      1.043      3.699
REMARK  1 active torsions:
REMARK  status: ('A' for Active; 'I' for Inactive)
REMARK    1  A    between atoms: C_2  and  C_4 
ROOT
HETATM    1  C   LIG     1      17.436  36.614  23.829  1.00  0.00    -0.051 A 
HETATM    2  C   LIG     1      17.474  37.608  22.824  1.00  0.00     0.008 A 
HETATM    3  C   LIG     1      17.156  37.306  21.498  1.00  0.00     0.001 A 
HETATM    4  C   LIG     1      16.791  36.008  21.142  1.00  0.00     0.000 A 
HETATM    5  C   LIG     1      16.745  35.010  22.114  1.00  0.00     0.001 A 
HETATM    6  C   LIG     1      17.063  35.303  23.444  1.00  0.00     0.008 A 
ENDROOT
BRANCH   1   7
HETATM    7  C   LIG     1      17.794  36.986  25.283  1.00  0.00    -0.024 C 
HETATM    8  C   LIG     1      17.504  35.848  26.290  1.00  0.00     0.019 C 
HETATM    9  C   LIG     1      19.300  37.319  25.373  1.00  0.00     0.019 C 
HETATM   10  C   LIG     1      16.970  38.218  25.717  1.00  0.00     0.019 C 
ENDBRANCH   1   7
TORSDOF 1
ENDMDL
MODEL 9
REMARK VINA RESULT:      -4.6      9.214     10.382
REMARK  1 active torsions:
REMARK  status: ('A' for Active; 'I' for Inactive)
REMARK    1  A    between atoms: C_2  and  C_4 
ROOT
HETATM    1  C   LIG     1      15.510  32.121  15.354  1.00  0.00    -0.051 A 
HETATM    2  C   LIG     1      14.850  32.565  16.522  1.00  0.00     0.008 A 
HETATM    3  C   LIG     1      13.718  31.904  17.008  1.00  0.00     0.001 A 
HETATM    4  C   LIG     1      13.220  30.786  16.341  1.00  0.00     0.000 A 
HETATM    5  C   LIG     1      13.852  30.327  15.186  1.00  0.00     0.001 A 
HETATM    6  C   LIG     1      14.985  30.983  14.693  1.00  0.00     0.008 A 
ENDROOT
BRANCH   1   7
HETATM    7  C   LIG     1      16.756  32.877  14.848  1.00  0.00    -0.024 C 
HETATM    8  C   LIG     1      16.799  34.353  15.307  1.00  0.00     0.019 C 
HETATM    9  C   LIG     1      18.030  32.183  15.382  1.00  0.00     0.019 C 
HETATM   10  C   LIG     1      16.775  32.864  13.304  1.00  0.00     0.019 C 
ENDBRANCH   1   7
TORSDOF 1
ENDMDL
MODEL 10
REMARK VINA RESULT:      -4.6      8.695     10.696
REMARK  1 active torsions:
REMARK  status: ('A' for Active; 'I' for Inactive)
REMARK    1  A    between atoms: C_2  and  C_4 
ROOT
HETATM    1  C   LIG     1      14.916  31.935  15.682  1.00  0.00    -0.051 A 
HETATM    2  C   LIG     1      15.011  31.221  14.466  1.00  0.00     0.008 A 
HETATM    3  C   LIG     1      15.998  31.526  13.525  1.00  0.00     0.001 A 
HETATM    4  C   LIG     1      16.912  32.549  13.774  1.00  0.00     0.000 A 
HETATM    5  C   LIG     1      16.839  33.269  14.966  1.00  0.00     0.001 A 
HETATM    6  C   LIG     1      15.855  32.970  15.913  1.00  0.00     0.008 A 
ENDROOT
BRANCH   1   7
HETATM    7  C   LIG     1      13.813  31.569  16.697  1.00  0.00    -0.024 C 
HETATM    8  C   LIG     1      12.605  32.535  16.656  1.00  0.00     0.019 C 
HETATM    9  C   LIG     1      13.286  30.148  16.394  1.00  0.00     0.019 C 
HETATM   10  C   LIG     1      14.395  31.605  18.126  1.00  0.00     0.019 C 
ENDBRANCH   1   7
TORSDOF 1
ENDMDL
MODEL 11
REMARK VINA RESULT:      -4.5      8.603     10.903
REMARK  1 active torsions:
REMARK  status: ('A' for Active; 'I' for Inactive)
REMARK    1  A    between atoms: C_2  and  C_4 
ROOT
HETATM    1  C   LIG     1      14.786  31.042  15.443  1.00  0.00    -0.051 A 
HETATM    2  C   LIG     1      15.681  32.136  15.454  1.00  0.00     0.008 A 
HETATM    3  C   LIG     1      15.685  33.055  16.507  1.00  0.00     0.001 A 
HETATM    4  C   LIG     1      14.797  32.904  17.572  1.00  0.00     0.000 A 
HETATM    5  C   LIG     1      13.905  31.834  17.585  1.00  0.00     0.001 A 
HETATM    6  C   LIG     1      13.894  30.910  16.535  1.00  0.00     0.008 A 
ENDROOT
BRANCH   1   7
HETATM    7  C   LIG     1      14.812  30.049  14.263  1.00  0.00    -0.024 C 
HETATM    8  C   LIG     1      15.757  28.847  14.501  1.00  0.00     0.019 C 
HETATM    9  C   LIG     1      13.391  29.488  14.031  1.00  0.00     0.019 C 
HETATM   10  C   LIG     1      15.290  30.776  12.987  1.00  0.00     0.019 C 
ENDBRANCH   1   7
TORSDOF 1
ENDMDL
