REMARK  1 active torsions:
REMARK  status: ('A' for Active; 'I' for Inactive)
REMARK    1  A    between atoms: C_2  and  C_4 
ROOT
HETATM    1  C   LIG     1       0.401  -0.027   0.015  1.00  0.00    -0.051 A 
HETATM    2  C   LIG     1       1.099   0.665  -1.001  1.00  0.00     0.008 A 
HETATM    3  C   LIG     1       2.495   0.648  -1.058  1.00  0.00     0.001 A 
HETATM    4  C   LIG     1       3.227  -0.059  -0.105  1.00  0.00     0.000 A 
HETATM    5  C   LIG     1       2.563  -0.750   0.907  1.00  0.00     0.001 A 
HETATM    6  C   LIG     1       1.166  -0.738   0.972  1.00  0.00     0.008 A 
ENDROOT
BRANCH   1   7
HETATM    7  C   LIG     1      -1.141   0.015   0.045  1.00  0.00    -0.024 C 
HETATM    8  C   LIG     1      -1.748  -0.792   1.217  1.00  0.00     0.019 C 
HETATM    9  C   LIG     1      -1.613   1.479   0.190  1.00  0.00     0.019 C 
HETATM   10  C   LIG     1      -1.698  -0.575  -1.269  1.00  0.00     0.019 C 
ENDBRANCH   1   7
TORSDOF 1
