REMARK  1 active torsions:
REMARK  status: ('A' for Active; 'I' for Inactive)
REMARK    1  A    between atoms: C_1  and  C_2 
ROOT
HETATM    1  C   LIG     1       0.564   0.186   0.108  1.00  0.00     0.112 A 
HETATM    2  C   LIG     1      -0.145  -0.943  -0.247  1.00  0.00     0.042 A 
HETATM    3  C   LIG     1      -1.465  -0.548  -0.296  1.00  0.00     0.027 A 
HETATM    4  C   LIG     1      -1.478   0.793   0.032  1.00  0.00     0.142 A 
HETATM    5  O   LIG     1      -0.252   1.202   0.267  1.00  0.00    -0.320 OA
ENDROOT
BRANCH   1   6
HETATM    6  C   LIG     1       2.015   0.259   0.285  1.00  0.00     0.295 C 
HETATM    7  O   LIG     1       2.561   1.345   0.612  1.00  0.00    -0.299 OA
ENDBRANCH   1   6
TORSDOF 1
