MODEL 1
REMARK VINA RESULT:      -7.3      0.000      0.000
REMARK  2 active torsions:
REMARK  status: ('A' for Active; 'I' for Inactive)
REMARK    1  A    between atoms: C_2  and  C_4 
REMARK    2  A    between atoms: C_6  and  N_7 
ROOT
HETATM    1  C   LIG     1      17.342  35.773  24.856  1.00  0.00     0.050 A 
HETATM    2  C   LIG     1      17.176  37.164  24.746  1.00  0.00     0.045 A 
HETATM    3  C   LIG     1      16.843  37.748  23.515  1.00  0.00     0.026 A 
HETATM    4  C   LIG     1      16.674  36.936  22.386  1.00  0.00     0.029 A 
HETATM    5  C   LIG     1      16.837  35.552  22.487  1.00  0.00     0.003 A 
HETATM    6  C   LIG     1      17.169  34.971  23.713  1.00  0.00     0.016 A 
ENDROOT
BRANCH   1   7
HETATM    7  C   LIG     1      17.699  35.176  26.194  1.00  0.00     0.417 C 
HETATM    8  F   LIG     1      17.854  36.189  27.124  1.00  0.00    -0.166 F 
HETATM    9  F   LIG     1      16.683  34.334  26.610  1.00  0.00    -0.166 F 
HETATM   10  F   LIG     1      18.877  34.450  26.133  1.00  0.00    -0.166 F 
ENDBRANCH   1   7
BRANCH   3  11
HETATM   11  N   LIG     1      16.677  39.165  23.412  1.00  0.00    -0.399 N 
HETATM   12  H   LIG     1      17.029  39.685  22.578  1.00  0.00     0.156 HD
HETATM   13  H   LIG     1      16.201  39.704  24.169  1.00  0.00     0.156 HD
ENDBRANCH   3  11
TORSDOF 2
ENDMDL
MODEL 2
REMARK VINA RESULT:      -7.1      1.440      2.049
REMARK  2 active torsions:
REMARK  status: ('A' for Active; 'I' for Inactive)
REMARK    1  A    between atoms: C_2  and  C_4 
REMARK    2  A    between atoms: C_6  and  N_7 
ROOT
HETATM    1  C   LIG     1      17.428  35.852  24.929  1.00  0.00     0.050 A 
HETATM    2  C   LIG     1      17.133  35.065  23.802  1.00  0.00     0.045 A 
HETATM    3  C   LIG     1      16.840  35.666  22.569  1.00  0.00     0.026 A 
HETATM    4  C   LIG     1      16.843  37.063  22.461  1.00  0.00     0.029 A 
HETATM    5  C   LIG     1      17.135  37.852  23.576  1.00  0.00     0.003 A 
HETATM    6  C   LIG     1      17.427  37.253  24.805  1.00  0.00     0.016 A 
ENDROOT
BRANCH   1   7
HETATM    7  C   LIG     1      17.739  35.174  26.240  1.00  0.00     0.417 C 
HETATM    8  F   LIG     1      17.895  36.130  27.227  1.00  0.00    -0.166 F 
HETATM    9  F   LIG     1      16.693  34.336  26.585  1.00  0.00    -0.166 F 
HETATM   10  F   LIG     1      18.900  34.422  26.165  1.00  0.00    -0.166 F 
ENDBRANCH   1   7
BRANCH   3  11
HETATM   11  N   LIG     1      16.540  34.858  21.428  1.00  0.00    -0.399 N 
HETATM   12  H   LIG     1      17.028  33.947  21.274  1.00  0.00     0.156 HD
HETATM   13  H   LIG     1      15.827  35.163  20.729  1.00  0.00     0.156 HD
ENDBRANCH   3  11
TORSDOF 2
ENDMDL
MODEL 3
REMARK VINA RESULT:      -6.8      3.008      3.769
REMARK  2 active torsions:
REMARK  status: ('A' for Active; 'I' for Inactive)
REMARK    1  A    between atoms: C_2  and  C_4 
REMARK    2  A    between atoms: C_6  and  N_7 
ROOT
HETATM    1  C   LIG     1      16.950  36.022  23.300  1.00  0.00     0.050 A 
HETATM    2  C   LIG     1      16.982  37.315  23.850  1.00  0.00     0.045 A 
HETATM    3  C   LIG     1      17.315  37.509  25.199  1.00  0.00     0.026 A 
HETATM    4  C   LIG     1      17.620  36.402  26.003  1.00  0.00     0.029 A 
HETATM    5  C   LIG     1      17.592  35.114  25.464  1.00  0.00     0.003 A 
HETATM    6  C   LIG     1      17.259  34.921  24.121  1.00  0.00     0.016 A 
ENDROOT
BRANCH   1   7
HETATM    7  C   LIG     1      16.588  35.848  21.847  1.00  0.00     0.417 C 
HETATM    8  F   LIG     1      16.621  34.504  21.521  1.00  0.00    -0.166 F 
HETATM    9  F   LIG     1      15.311  36.333  21.628  1.00  0.00    -0.166 F 
HETATM   10  F   LIG     1      17.465  36.525  21.016  1.00  0.00    -0.166 F 
ENDBRANCH   1   7
BRANCH   3  11
HETATM   11  N   LIG     1      17.343  38.828  25.751  1.00  0.00    -0.399 N 
HETATM   12  H   LIG     1      18.068  39.518  25.451  1.00  0.00     0.156 HD
HETATM   13  H   LIG     1      16.639  39.125  26.463  1.00  0.00     0.156 HD
ENDBRANCH   3  11
TORSDOF 2
ENDMDL
MODEL 4
REMARK VINA RESULT:      -6.7      4.535      5.351
REMARK  2 active torsions:
REMARK  status: ('A' for Active; 'I' for Inactive)
REMARK    1  A    between atoms: C_2  and  C_4 
REMARK    2  A    between atoms: C_6  and  N_7 
ROOT
HETATM    1  C   LIG     1      18.264  37.933  20.825  1.00  0.00     0.050 A 
HETATM    2  C   LIG     1      17.648  38.361  22.013  1.00  0.00     0.045 A 
HETATM    3  C   LIG     1      16.852  37.482  22.761  1.00  0.00     0.026 A 
HETATM    4  C   LIG     1      16.671  36.165  22.318  1.00  0.00     0.029 A 
HETATM    5  C   LIG     1      17.280  35.731  21.139  1.00  0.00     0.003 A 
HETATM    6  C   LIG     1      18.073  36.608  20.393  1.00  0.00     0.016 A 
ENDROOT
BRANCH   1   7
HETATM    7  C   LIG     1      19.115  38.904  20.044  1.00  0.00     0.417 C 
HETATM    8  F   LIG     1      18.721  38.899  18.718  1.00  0.00    -0.166 F 
HETATM    9  F   LIG     1      18.950  40.178  20.558  1.00  0.00    -0.166 F 
HETATM   10  F   LIG     1      20.458  38.573  20.106  1.00  0.00    -0.166 F 
ENDBRANCH   1   7
BRANCH   3  11
HETATM   11  N   LIG     1      16.228  37.926  23.968  1.00  0.00    -0.399 N 
HETATM   12  H   LIG     1      16.348  38.908  24.303  1.00  0.00     0.156 HD
HETATM   13  H   LIG     1      15.640  37.277  24.537  1.00  0.00     0.156 HD
ENDBRANCH   3  11
TORSDOF 2
ENDMDL
MODEL 5
REMARK VINA RESULT:      -6.6      3.715      4.510
REMARK  2 active torsions:
REMARK  status: ('A' for Active; 'I' for Inactive)
REMARK    1  A    between atoms: C_2  and  C_4 
REMARK    2  A    between atoms: C_6  and  N_7 
ROOT
HETATM    1  C   LIG     1      17.915  38.088  21.763  1.00  0.00     0.050 A 
HETATM    2  C   LIG     1      18.819  38.928  21.090  1.00  0.00     0.045 A 
HETATM    3  C   LIG     1      19.370  38.542  19.859  1.00  0.00     0.026 A 
HETATM    4  C   LIG     1      19.015  37.308  19.297  1.00  0.00     0.029 A 
HETATM    5  C   LIG     1      18.118  36.468  19.960  1.00  0.00     0.003 A 
HETATM    6  C   LIG     1      17.569  36.852  21.186  1.00  0.00     0.016 A 
ENDROOT
BRANCH   1   7
HETATM    7  C   LIG     1      17.340  38.533  23.085  1.00  0.00     0.417 C 
HETATM    8  F   LIG     1      18.328  38.499  24.052  1.00  0.00    -0.166 F 
HETATM    9  F   LIG     1      16.867  39.828  22.969  1.00  0.00    -0.166 F 
HETATM   10  F   LIG     1      16.297  37.716  23.491  1.00  0.00    -0.166 F 
ENDBRANCH   1   7
BRANCH   3  11
HETATM   11  N   LIG     1      20.290  39.402  19.181  1.00  0.00    -0.399 N 
HETATM   12  H   LIG     1      21.017  39.932  19.712  1.00  0.00     0.156 HD
HETATM   13  H   LIG     1      20.251  39.516  18.144  1.00  0.00     0.156 HD
ENDBRANCH   3  11
TORSDOF 2
ENDMDL
MODEL 6
REMARK VINA RESULT:      -6.6      4.707      5.654
REMARK  2 active torsions:
REMARK  status: ('A' for Active; 'I' for Inactive)
REMARK    1  A    between atoms: C_2  and  C_4 
REMARK    2  A    between atoms: C_6  and  N_7 
ROOT
HETATM    1  C   LIG     1      18.325  37.532  20.598  1.00  0.00     0.050 A 
HETATM    2  C   LIG     1      17.632  36.324  20.790  1.00  0.00     0.045 A 
HETATM    3  C   LIG     1      16.648  36.217  21.784  1.00  0.00     0.026 A 
HETATM    4  C   LIG     1      16.354  37.324  22.590  1.00  0.00     0.029 A 
HETATM    5  C   LIG     1      17.037  38.528  22.405  1.00  0.00     0.003 A 
HETATM    6  C   LIG     1      18.018  38.635  21.415  1.00  0.00     0.016 A 
ENDROOT
BRANCH   1   7
HETATM    7  C   LIG     1      19.377  37.615  19.520  1.00  0.00     0.417 C 
HETATM    8  F   LIG     1      20.323  38.562  19.871  1.00  0.00    -0.166 F 
HETATM    9  F   LIG     1      19.998  36.386  19.387  1.00  0.00    -0.166 F 
HETATM   10  F   LIG     1      18.831  37.968  18.297  1.00  0.00    -0.166 F 
ENDBRANCH   1   7
BRANCH   3  11
HETATM   11  N   LIG     1      15.949  34.984  21.974  1.00  0.00    -0.399 N 
HETATM   12  H   LIG     1      14.943  34.892  21.707  1.00  0.00     0.156 HD
HETATM   13  H   LIG     1      16.432  34.152  22.381  1.00  0.00     0.156 HD
ENDBRANCH   3  11
TORSDOF 2
ENDMDL
MODEL 7
REMARK VINA RESULT:      -6.4      3.497      4.211
REMARK  2 active torsions:
REMARK  status: ('A' for Active; 'I' for Inactive)
REMARK    1  A    between atoms: C_2  and  C_4 
REMARK    2  A    between atoms: C_6  and  N_7 
ROOT
HETATM    1  C   LIG     1      17.264  37.421  23.146  1.00  0.00     0.050 A 
HETATM    2  C   LIG     1      17.510  37.505  24.528  1.00  0.00     0.045 A 
HETATM    3  C   LIG     1      17.508  36.350  25.324  1.00  0.00     0.026 A 
HETATM    4  C   LIG     1      17.257  35.103  24.735  1.00  0.00     0.029 A 
HETATM    5  C   LIG     1      17.012  35.012  23.363  1.00  0.00     0.003 A 
HETATM    6  C   LIG     1      17.014  36.162  22.570  1.00  0.00     0.016 A 
ENDROOT
BRANCH   1   7
HETATM    7  C   LIG     1      17.274  38.682  22.319  1.00  0.00     0.417 C 
HETATM    8  F   LIG     1      16.046  39.310  22.419  1.00  0.00    -0.166 F 
HETATM    9  F   LIG     1      18.256  39.536  22.791  1.00  0.00    -0.166 F 
HETATM   10  F   LIG     1      17.526  38.416  20.983  1.00  0.00    -0.166 F 
ENDBRANCH   1   7
BRANCH   3  11
HETATM   11  N   LIG     1      17.758  36.443  26.729  1.00  0.00    -0.399 N 
HETATM   12  H   LIG     1      16.981  36.636  27.399  1.00  0.00     0.156 HD
HETATM   13  H   LIG     1      18.722  36.320  27.109  1.00  0.00     0.156 HD
ENDBRANCH   3  11
TORSDOF 2
ENDMDL
MODEL 8
REMARK VINA RESULT:      -6.4      3.412      4.304
REMARK  2 active torsions:
REMARK  status: ('A' for Active; 'I' for Inactive)
REMARK    1  A    between atoms: C_2  and  C_4 
REMARK    2  A    between atoms: C_6  and  N_7 
ROOT
HETATM    1  C   LIG     1      16.913  36.346  23.078  1.00  0.00     0.050 A 
HETATM    2  C   LIG     1      17.185  35.365  24.046  1.00  0.00     0.045 A 
HETATM    3  C   LIG     1      17.558  35.731  25.348  1.00  0.00     0.026 A 
HETATM    4  C   LIG     1      17.658  37.088  25.684  1.00  0.00     0.029 A 
HETATM    5  C   LIG     1      17.389  38.069  24.727  1.00  0.00     0.003 A 
HETATM    6  C   LIG     1      17.018  37.704  23.431  1.00  0.00     0.016 A 
ENDROOT
BRANCH   1   7
HETATM    7  C   LIG     1      16.514  35.919  21.687  1.00  0.00     0.417 C 
HETATM    8  F   LIG     1      17.300  36.578  20.759  1.00  0.00    -0.166 F 
HETATM    9  F   LIG     1      16.705  34.555  21.552  1.00  0.00    -0.166 F 
HETATM   10  F   LIG     1      15.185  36.207  21.424  1.00  0.00    -0.166 F 
ENDBRANCH   1   7
BRANCH   3  11
HETATM   11  N   LIG     1      17.834  34.726  26.327  1.00  0.00    -0.399 N 
HETATM   12  H   LIG     1      18.571  34.874  27.052  1.00  0.00     0.156 HD
HETATM   13  H   LIG     1      17.304  33.827  26.335  1.00  0.00     0.156 HD
ENDBRANCH   3  11
TORSDOF 2
ENDMDL
MODEL 9
REMARK VINA RESULT:      -6.3     10.156     11.320
REMARK  2 active torsions:
REMARK  status: ('A' for Active; 'I' for Inactive)
REMARK    1  A    between atoms: C_2  and  C_4 
REMARK    2  A    between atoms: C_6  and  N_7 
ROOT
HETATM    1  C   LIG     1      14.055  31.302  15.856  1.00  0.00     0.050 A 
HETATM    2  C   LIG     1      13.208  30.274  15.409  1.00  0.00     0.045 A 
HETATM    3  C   LIG     1      13.601  29.432  14.359  1.00  0.00     0.026 A 
HETATM    4  C   LIG     1      14.850  29.619  13.751  1.00  0.00     0.029 A 
HETATM    5  C   LIG     1      15.698  30.638  14.190  1.00  0.00     0.003 A 
HETATM    6  C   LIG     1      15.306  31.477  15.237  1.00  0.00     0.016 A 
ENDROOT
BRANCH   1   7
HETATM    7  C   LIG     1      13.602  32.190  16.989  1.00  0.00     0.417 C 
HETATM    8  F   LIG     1      14.140  33.454  16.827  1.00  0.00    -0.166 F 
HETATM    9  F   LIG     1      12.222  32.283  16.977  1.00  0.00    -0.166 F 
HETATM   10  F   LIG     1      14.001  31.694  18.219  1.00  0.00    -0.166 F 
ENDBRANCH   1   7
BRANCH   3  11
HETATM   11  N   LIG     1      12.733  28.388  13.909  1.00  0.00    -0.399 N 
HETATM   12  H   LIG     1      12.234  27.776  14.592  1.00  0.00     0.156 HD
HETATM   13  H   LIG     1      12.581  28.221  12.889  1.00  0.00     0.156 HD
ENDBRANCH   3  11
TORSDOF 2
ENDMDL
MODEL 10
REMARK VINA RESULT:      -6.2      3.597      4.315
REMARK  2 active torsions:
REMARK  status: ('A' for Active; 'I' for Inactive)
REMARK    1  A    between atoms: C_2  and  C_4 
REMARK    2  A    between atoms: C_6  and  N_7 
ROOT
HETATM    1  C   LIG     1      17.566  36.625  20.988  1.00  0.00     0.050 A 
HETATM    2  C   LIG     1      17.704  37.834  21.692  1.00  0.00     0.045 A 
HETATM    3  C   LIG     1      18.577  38.832  21.233  1.00  0.00     0.026 A 
HETATM    4  C   LIG     1      19.316  38.621  20.061  1.00  0.00     0.029 A 
HETATM    5  C   LIG     1      19.184  37.423  19.355  1.00  0.00     0.003 A 
HETATM    6  C   LIG     1      18.315  36.429  19.813  1.00  0.00     0.016 A 
ENDROOT
BRANCH   1   7
HETATM    7  C   LIG     1      16.619  35.573  21.508  1.00  0.00     0.417 C 
HETATM    8  F   LIG     1      17.121  35.041  22.682  1.00  0.00    -0.166 F 
HETATM    9  F   LIG     1      15.387  36.148  21.765  1.00  0.00    -0.166 F 
HETATM   10  F   LIG     1      16.445  34.545  20.597  1.00  0.00    -0.166 F 
ENDBRANCH   1   7
BRANCH   3  11
HETATM   11  N   LIG     1      18.712  40.058  21.957  1.00  0.00    -0.399 N 
HETATM   12  H   LIG     1      18.297  40.944  21.591  1.00  0.00     0.156 HD
HETATM   13  H   LIG     1      19.227  40.089  22.864  1.00  0.00     0.156 HD
ENDBRANCH   3  11
TORSDOF 2
ENDMDL
MODEL 11
REMARK VINA RESULT:      -6.2      3.276      4.117
REMARK  2 active torsions:
REMARK  status: ('A' for Active; 'I' for Inactive)
REMARK    1  A    between atoms: C_2  and  C_4 
REMARK    2  A    between atoms: C_6  and  N_7 
ROOT
HETATM    1  C   LIG     1      16.719  36.864  22.001  1.00  0.00     0.050 A 
HETATM    2  C   LIG     1      16.615  37.193  23.363  1.00  0.00     0.045 A 
HETATM    3  C   LIG     1      17.396  38.222  23.910  1.00  0.00     0.026 A 
HETATM    4  C   LIG     1      18.287  38.927  23.089  1.00  0.00     0.029 A 
HETATM    5  C   LIG     1      18.395  38.606  21.734  1.00  0.00     0.003 A 
HETATM    6  C   LIG     1      17.617  37.580  21.190  1.00  0.00     0.016 A 
ENDROOT
BRANCH   1   7
HETATM    7  C   LIG     1      15.865  35.752  21.445  1.00  0.00     0.417 C 
HETATM    8  F   LIG     1      14.538  36.145  21.446  1.00  0.00    -0.166 F 
HETATM    9  F   LIG     1      16.252  35.479  20.145  1.00  0.00    -0.166 F 
HETATM   10  F   LIG     1      15.982  34.592  22.193  1.00  0.00    -0.166 F 
ENDBRANCH   1   7
BRANCH   3  11
HETATM   11  N   LIG     1      17.286  38.550  25.297  1.00  0.00    -0.399 N 
HETATM   12  H   LIG     1      16.494  39.135  25.647  1.00  0.00     0.156 HD
HETATM   13  H   LIG     1      17.993  38.211  25.986  1.00  0.00     0.156 HD
ENDBRANCH   3  11
TORSDOF 2
ENDMDL
MODEL 12
REMARK VINA RESULT:      -6.1      9.998     11.154
REMARK  2 active torsions:
REMARK  status: ('A' for Active; 'I' for Inactive)
REMARK    1  A    between atoms: C_2  and  C_4 
REMARK    2  A    between atoms: C_6  and  N_7 
ROOT
HETATM    1  C   LIG     1      14.723  31.021  15.255  1.00  0.00     0.050 A 
HETATM    2  C   LIG     1      15.574  32.139  15.210  1.00  0.00     0.045 A 
HETATM    3  C   LIG     1      15.518  33.119  16.213  1.00  0.00     0.026 A 
HETATM    4  C   LIG     1      14.605  32.980  17.267  1.00  0.00     0.029 A 
HETATM    5  C   LIG     1      13.756  31.872  17.318  1.00  0.00     0.003 A 
HETATM    6  C   LIG     1      13.812  30.896  16.319  1.00  0.00     0.016 A 
ENDROOT
BRANCH   1   7
HETATM    7  C   LIG     1      14.810  29.985  14.162  1.00  0.00     0.417 C 
HETATM    8  F   LIG     1      15.127  30.603  12.965  1.00  0.00    -0.166 F 
HETATM    9  F   LIG     1      15.799  29.069  14.472  1.00  0.00    -0.166 F 
HETATM   10  F   LIG     1      13.613  29.305  14.004  1.00  0.00    -0.166 F 
ENDBRANCH   1   7
BRANCH   3  11
HETATM   11  N   LIG     1      16.386  34.254  16.159  1.00  0.00    -0.399 N 
HETATM   12  H   LIG     1      16.428  34.856  15.307  1.00  0.00     0.156 HD
HETATM   13  H   LIG     1      16.993  34.501  16.972  1.00  0.00     0.156 HD
ENDBRANCH   3  11
TORSDOF 2
ENDMDL
MODEL 13
REMARK VINA RESULT:      -6.0      9.727     10.759
REMARK  2 active torsions:
REMARK  status: ('A' for Active; 'I' for Inactive)
REMARK    1  A    between atoms: C_2  and  C_4 
REMARK    2  A    between atoms: C_6  and  N_7 
ROOT
HETATM    1  C   LIG     1      16.001  32.281  15.072  1.00  0.00     0.050 A 
HETATM    2  C   LIG     1      15.301  32.495  16.272  1.00  0.00     0.045 A 
HETATM    3  C   LIG     1      14.210  31.683  16.615  1.00  0.00     0.026 A 
HETATM    4  C   LIG     1      13.816  30.651  15.754  1.00  0.00     0.029 A 
HETATM    5  C   LIG     1      14.507  30.432  14.560  1.00  0.00     0.003 A 
HETATM    6  C   LIG     1      15.594  31.240  14.218  1.00  0.00     0.016 A 
ENDROOT
BRANCH   1   7
HETATM    7  C   LIG     1      17.171  33.172  14.732  1.00  0.00     0.417 C 
HETATM    8  F   LIG     1      18.337  32.603  15.211  1.00  0.00    -0.166 F 
HETATM    9  F   LIG     1      17.265  33.305  13.359  1.00  0.00    -0.166 F 
HETATM   10  F   LIG     1      17.033  34.432  15.289  1.00  0.00    -0.166 F 
ENDBRANCH   1   7
BRANCH   3  11
HETATM   11  N   LIG     1      13.502  31.908  17.837  1.00  0.00    -0.399 N 
HETATM   12  H   LIG     1      13.922  32.486  18.600  1.00  0.00     0.156 HD
HETATM   13  H   LIG     1      12.554  31.500  17.989  1.00  0.00     0.156 HD
ENDBRANCH   3  11
TORSDOF 2
ENDMDL
MODEL 14
REMARK VINA RESULT:      -6.0      3.318      4.210
REMARK  2 active torsions:
REMARK  status: ('A' for Active; 'I' for Inactive)
REMARK    1  A    between atoms: C_2  and  C_4 
REMARK    2  A    between atoms: C_6  and  N_7 
ROOT
HETATM    1  C   LIG     1      17.209  37.499  22.076  1.00  0.00     0.050 A 
HETATM    2  C   LIG     1      15.982  36.841  22.266  1.00  0.00     0.045 A 
HETATM    3  C   LIG     1      15.563  35.842  21.375  1.00  0.00     0.026 A 
HETATM    4  C   LIG     1      16.377  35.496  20.288  1.00  0.00     0.029 A 
HETATM    5  C   LIG     1      17.598  36.145  20.093  1.00  0.00     0.003 A 
HETATM    6  C   LIG     1      18.015  37.141  20.980  1.00  0.00     0.016 A 
ENDROOT
BRANCH   1   7
HETATM    7  C   LIG     1      17.630  38.569  23.051  1.00  0.00     0.417 C 
HETATM    8  F   LIG     1      17.645  38.046  24.332  1.00  0.00    -0.166 F 
HETATM    9  F   LIG     1      18.902  39.011  22.731  1.00  0.00    -0.166 F 
HETATM   10  F   LIG     1      16.768  39.653  23.027  1.00  0.00    -0.166 F 
ENDBRANCH   1   7
BRANCH   3  11
HETATM   11  N   LIG     1      14.312  35.178  21.575  1.00  0.00    -0.399 N 
HETATM   12  H   LIG     1      13.444  35.519  21.103  1.00  0.00     0.156 HD
HETATM   13  H   LIG     1      14.243  34.341  22.195  1.00  0.00     0.156 HD
ENDBRANCH   3  11
TORSDOF 2
ENDMDL
MODEL 15
REMARK VINA RESULT:      -5.8     10.136     11.185
REMARK  2 active torsions:
REMARK  status: ('A' for Active; 'I' for Inactive)
REMARK    1  A    between atoms: C_2  and  C_4 
REMARK    2  A    between atoms: C_6  and  N_7 
ROOT
HETATM    1  C   LIG     1      15.740  32.162  15.270  1.00  0.00     0.050 A 
HETATM    2  C   LIG     1      15.337  31.082  14.465  1.00  0.00     0.045 A 
HETATM    3  C   LIG     1      14.212  30.317  14.808  1.00  0.00     0.026 A 
HETATM    4  C   LIG     1      13.485  30.634  15.963  1.00  0.00     0.029 A 
HETATM    5  C   LIG     1      13.879  31.705  16.768  1.00  0.00     0.003 A 
HETATM    6  C   LIG     1      14.999  32.467  16.427  1.00  0.00     0.016 A 
ENDROOT
BRANCH   1   7
HETATM    7  C   LIG     1      16.953  32.964  14.873  1.00  0.00     0.417 C 
HETATM    8  F   LIG     1      17.017  33.053  13.494  1.00  0.00    -0.166 F 
HETATM    9  F   LIG     1      16.856  34.239  15.402  1.00  0.00    -0.166 F 
HETATM   10  F   LIG     1      18.124  32.384  15.332  1.00  0.00    -0.166 F 
ENDBRANCH   1   7
BRANCH   3  11
HETATM   11  N   LIG     1      13.810  29.220  13.984  1.00  0.00    -0.399 N 
HETATM   12  H   LIG     1      12.811  29.100  13.703  1.00  0.00     0.156 HD
HETATM   13  H   LIG     1      14.508  28.520  13.647  1.00  0.00     0.156 HD
ENDBRANCH   3  11
TORSDOF 2
ENDMDL
MODEL 16
REMARK VINA RESULT:      -5.7     10.451     11.613
REMARK  2 active torsions:
REMARK  status: ('A' for Active; 'I' for Inactive)
REMARK    1  A    between atoms: C_2  and  C_4 
REMARK    2  A    between atoms: C_6  and  N_7 
ROOT
HETATM    1  C   LIG     1      15.083  30.620  14.882  1.00  0.00     0.050 A 
HETATM    2  C   LIG     1      13.995  30.743  15.763  1.00  0.00     0.045 A 
HETATM    3  C   LIG     1      13.885  31.857  16.609  1.00  0.00     0.026 A 
HETATM    4  C   LIG     1      14.868  32.854  16.573  1.00  0.00     0.029 A 
HETATM    5  C   LIG     1      15.952  32.739  15.700  1.00  0.00     0.003 A 
HETATM    6  C   LIG     1      16.062  31.630  14.858  1.00  0.00     0.016 A 
ENDROOT
BRANCH   1   7
HETATM    7  C   LIG     1      15.172  29.410  13.986  1.00  0.00     0.417 C 
HETATM    8  F   LIG     1      13.911  28.868  13.816  1.00  0.00    -0.166 F 
HETATM    9  F   LIG     1      15.670  29.787  12.751  1.00  0.00    -0.166 F 
HETATM   10  F   LIG     1      16.002  28.438  14.518  1.00  0.00    -0.166 F 
ENDBRANCH   1   7
BRANCH   3  11
HETATM   11  N   LIG     1      12.775  31.974  17.504  1.00  0.00    -0.399 N 
HETATM   12  H   LIG     1      12.813  32.624  18.320  1.00  0.00     0.156 HD
HETATM   13  H   LIG     1      11.908  31.412  17.357  1.00  0.00     0.156 HD
ENDBRANCH   3  11
TORSDOF 2
ENDMDL
MODEL 17
REMARK VINA RESULT:      -5.7      9.507     10.640
REMARK  2 active torsions:
REMARK  status: ('A' for Active; 'I' for Inactive)
REMARK    1  A    between atoms: C_2  and  C_4 
REMARK    2  A    between atoms: C_6  and  N_7 
ROOT
HETATM    1  C   LIG     1      14.688  31.615  15.841  1.00  0.00     0.050 A 
HETATM    2  C   LIG     1      15.592  32.395  15.098  1.00  0.00     0.045 A 
HETATM    3  C   LIG     1      16.022  31.974  13.831  1.00  0.00     0.026 A 
HETATM    4  C   LIG     1      15.545  30.767  13.303  1.00  0.00     0.029 A 
HETATM    5  C   LIG     1      14.647  29.987  14.035  1.00  0.00     0.003 A 
HETATM    6  C   LIG     1      14.219  30.406  15.298  1.00  0.00     0.016 A 
ENDROOT
BRANCH   1   7
HETATM    7  C   LIG     1      14.245  32.097  17.200  1.00  0.00     0.417 C 
HETATM    8  F   LIG     1      12.946  32.563  17.123  1.00  0.00    -0.166 F 
HETATM    9  F   LIG     1      14.294  31.046  18.100  1.00  0.00    -0.166 F 
HETATM   10  F   LIG     1      15.054  33.118  17.671  1.00  0.00    -0.166 F 
ENDBRANCH   1   7
BRANCH   3  11
HETATM   11  N   LIG     1      16.942  32.772  13.081  1.00  0.00    -0.399 N 
HETATM   12  H   LIG     1      17.548  33.478  13.557  1.00  0.00     0.156 HD
HETATM   13  H   LIG     1      17.025  32.663  12.047  1.00  0.00     0.156 HD
ENDBRANCH   3  11
TORSDOF 2
ENDMDL
MODEL 18
REMARK VINA RESULT:      -5.6     10.280     11.339
REMARK  2 active torsions:
REMARK  status: ('A' for Active; 'I' for Inactive)
REMARK    1  A    between atoms: C_2  and  C_4 
REMARK    2  A    between atoms: C_6  and  N_7 
ROOT
HETATM    1  C   LIG     1      15.622  31.901  15.260  1.00  0.00     0.050 A 
HETATM    2  C   LIG     1      15.422  30.787  14.426  1.00  0.00     0.045 A 
HETATM    3  C   LIG     1      14.315  29.946  14.612  1.00  0.00     0.026 A 
HETATM    4  C   LIG     1      13.401  30.220  15.638  1.00  0.00     0.029 A 
HETATM    5  C   LIG     1      13.592  31.325  16.470  1.00  0.00     0.003 A 
HETATM    6  C   LIG     1      14.695  32.163  16.286  1.00  0.00     0.016 A 
ENDROOT
BRANCH   1   7
HETATM    7  C   LIG     1      16.822  32.785  15.034  1.00  0.00     0.417 C 
HETATM    8  F   LIG     1      17.965  32.126  15.449  1.00  0.00    -0.166 F 
HETATM    9  F   LIG     1      16.934  33.074  13.685  1.00  0.00    -0.166 F 
HETATM   10  F   LIG     1      16.721  33.976  15.733  1.00  0.00    -0.166 F 
ENDBRANCH   1   7
BRANCH   3  11
HETATM   11  N   LIG     1      14.120  28.815  13.759  1.00  0.00    -0.399 N 
HETATM   12  H   LIG     1      14.877  28.106  13.629  1.00  0.00     0.156 HD
HETATM   13  H   LIG     1      13.217  28.675  13.253  1.00  0.00     0.156 HD
ENDBRANCH   3  11
TORSDOF 2
ENDMDL
MODEL 19
REMARK VINA RESULT:      -5.4     10.211     11.308
REMARK  2 active torsions:
REMARK  status: ('A' for Active; 'I' for Inactive)
REMARK    1  A    between atoms: C_2  and  C_4 
REMARK    2  A    between atoms: C_6  and  N_7 
ROOT
HETATM    1  C   LIG     1      14.386  31.281  15.750  1.00  0.00     0.050 A 
HETATM    2  C   LIG     1      14.400  30.147  14.919  1.00  0.00     0.045 A 
HETATM    3  C   LIG     1      15.274  30.076  13.824  1.00  0.00     0.026 A 
HETATM    4  C   LIG     1      16.140  31.145  13.558  1.00  0.00     0.029 A 
HETATM    5  C   LIG     1      16.132  32.275  14.379  1.00  0.00     0.003 A 
HETATM    6  C   LIG     1      15.262  32.346  15.470  1.00  0.00     0.016 A 
ENDROOT
BRANCH   1   7
HETATM    7  C   LIG     1      13.435  31.326  16.919  1.00  0.00     0.417 C 
HETATM    8  F   LIG     1      12.601  30.223  16.878  1.00  0.00    -0.166 F 
HETATM    9  F   LIG     1      14.155  31.302  18.101  1.00  0.00    -0.166 F 
HETATM   10  F   LIG     1      12.654  32.470  16.901  1.00  0.00    -0.166 F 
ENDBRANCH   1   7
BRANCH   3  11
HETATM   11  N   LIG     1      15.281  28.919  12.983  1.00  0.00    -0.399 N 
HETATM   12  H   LIG     1      16.181  28.486  12.676  1.00  0.00     0.156 HD
HETATM   13  H   LIG     1      14.387  28.487  12.661  1.00  0.00     0.156 HD
ENDBRANCH   3  11
TORSDOF 2
ENDMDL
MODEL 20
REMARK VINA RESULT:      -5.3      7.534      8.671
REMARK  2 active torsions:
REMARK  status: ('A' for Active; 'I' for Inactive)
REMARK    1  A    between atoms: C_2  and  C_4 
REMARK    2  A    between atoms: C_6  and  N_7 
ROOT
HETATM    1  C   LIG     1      15.016  32.093  18.248  1.00  0.00     0.050 A 
HETATM    2  C   LIG     1      13.918  31.266  17.955  1.00  0.00     0.045 A 
HETATM    3  C   LIG     1      13.548  31.017  16.625  1.00  0.00     0.026 A 
HETATM    4  C   LIG     1      14.281  31.597  15.581  1.00  0.00     0.029 A 
HETATM    5  C   LIG     1      15.374  32.419  15.865  1.00  0.00     0.003 A 
HETATM    6  C   LIG     1      15.743  32.668  17.189  1.00  0.00     0.016 A 
ENDROOT
BRANCH   1   7
HETATM    7  C   LIG     1      15.388  32.341  19.689  1.00  0.00     0.417 C 
HETATM    8  F   LIG     1      16.474  31.554  20.026  1.00  0.00    -0.166 F 
HETATM    9  F   LIG     1      15.727  33.672  19.855  1.00  0.00    -0.166 F 
HETATM   10  F   LIG     1      14.343  32.041  20.546  1.00  0.00    -0.166 F 
ENDBRANCH   1   7
BRANCH   3  11
HETATM   11  N   LIG     1      12.429  30.175  16.336  1.00  0.00    -0.399 N 
HETATM   12  H   LIG     1      11.590  30.168  16.958  1.00  0.00     0.156 HD
HETATM   13  H   LIG     1      12.429  29.554  15.496  1.00  0.00     0.156 HD
ENDBRANCH   3  11
TORSDOF 2
ENDMDL
