REMARK  2 active torsions:
REMARK  status: ('A' for Active; 'I' for Inactive)
REMARK    1  A    between atoms: C_2  and  C_4 
REMARK    2  A    between atoms: C_6  and  N_7 
ROOT
HETATM    1  C   LIG     1       1.062  -0.022   0.049  1.00  0.00     0.050 A 
HETATM    2  C   LIG     1      -0.045  -0.887   0.004  1.00  0.00     0.045 A 
HETATM    3  C   LIG     1      -1.349  -0.374  -0.059  1.00  0.00     0.026 A 
HETATM    4  C   LIG     1      -1.548   1.013  -0.078  1.00  0.00     0.029 A 
HETATM    5  C   LIG     1      -0.453   1.879  -0.034  1.00  0.00     0.003 A 
HETATM    6  C   LIG     1       0.846   1.368   0.029  1.00  0.00     0.016 A 
ENDROOT
BRANCH   1   7
HETATM    7  C   LIG     1       2.451  -0.606   0.116  1.00  0.00     0.417 C 
HETATM    8  F   LIG     1       2.570  -1.383   1.254  1.00  0.00    -0.166 F 
HETATM    9  F   LIG     1       2.672  -1.399  -0.996  1.00  0.00    -0.166 F 
HETATM   10  F   LIG     1       3.421   0.382   0.153  1.00  0.00    -0.166 F 
ENDBRANCH   1   7
BRANCH   3  11
HETATM   11  N   LIG     1      -2.470  -1.261  -0.103  1.00  0.00    -0.399 N 
HETATM   12  H   LIG     1      -3.445  -0.889  -0.150  1.00  0.00     0.156 HD
HETATM   13  H   LIG     1      -2.334  -2.296  -0.090  1.00  0.00     0.156 HD
ENDBRANCH   3  11
TORSDOF 2
