REMARK  2 active torsions:
REMARK  status: ('A' for Active; 'I' for Inactive)
REMARK    1  A    between atoms: C_2  and  C_4 
REMARK    2  A    between atoms: C_7  and  O_8 
ROOT
HETATM    1  C   LIG     1       0.174   0.085   0.078  1.00  0.00    -0.050 A 
HETATM    2  C   LIG     1       1.010  -1.013  -0.235  1.00  0.00     0.011 A 
HETATM    3  C   LIG     1       2.401  -0.886  -0.230  1.00  0.00     0.037 A 
HETATM    4  C   LIG     1       2.995   0.339   0.087  1.00  0.00     0.065 A 
HETATM    5  C   LIG     1       2.191   1.435   0.399  1.00  0.00     0.037 A 
HETATM    6  C   LIG     1       0.798   1.315   0.396  1.00  0.00     0.011 A 
ENDROOT
BRANCH   1   7
HETATM    7  C   LIG     1      -1.358  -0.095   0.062  1.00  0.00    -0.024 C 
HETATM    8  C   LIG     1      -1.759  -1.182   1.084  1.00  0.00     0.019 C 
HETATM    9  C   LIG     1      -2.124   1.199   0.427  1.00  0.00     0.019 C 
HETATM   10  C   LIG     1      -1.811  -0.526  -1.350  1.00  0.00     0.019 C 
ENDBRANCH   1   7
BRANCH   4  11
HETATM   11  O   LIG     1       4.381   0.476   0.094  1.00  0.00    -0.361 OA
HETATM   12  H   LIG     1       4.992  -0.302  -0.128  1.00  0.00     0.217 HD
ENDBRANCH   4  11
TORSDOF 2
