MODEL 1
REMARK VINA RESULT:      -7.6      0.000      0.000
REMARK  2 active torsions:
REMARK  status: ('A' for Active; 'I' for Inactive)
REMARK    1  A    between atoms: C_2  and  C_4 
REMARK    2  A    between atoms: C_7  and  O_8 
ROOT
HETATM    1  C   LIG     1      17.590  37.249  21.237  1.00  0.00    -0.050 A 
HETATM    2  C   LIG     1      17.910  38.581  21.592  1.00  0.00     0.011 A 
HETATM    3  C   LIG     1      18.897  39.294  20.908  1.00  0.00     0.037 A 
HETATM    4  C   LIG     1      19.593  38.697  19.853  1.00  0.00     0.065 A 
HETATM    5  C   LIG     1      19.295  37.385  19.485  1.00  0.00     0.037 A 
HETATM    6  C   LIG     1      18.308  36.666  20.165  1.00  0.00     0.011 A 
ENDROOT
BRANCH   1   7
HETATM    7  C   LIG     1      16.493  36.495  22.016  1.00  0.00    -0.024 C 
HETATM    8  C   LIG     1      15.613  35.700  21.025  1.00  0.00     0.019 C 
HETATM    9  C   LIG     1      17.062  35.493  23.048  1.00  0.00     0.019 C 
HETATM   10  C   LIG     1      15.615  37.510  22.781  1.00  0.00     0.019 C 
ENDBRANCH   1   7
BRANCH   4  11
HETATM   11  O   LIG     1      20.580  39.399  19.166  1.00  0.00    -0.361 OA
HETATM   12  H   LIG     1      21.562  39.167  19.265  1.00  0.00     0.217 HD
ENDBRANCH   4  11
TORSDOF 2
ENDMDL
MODEL 2
REMARK VINA RESULT:      -6.4      3.256      4.812
REMARK  2 active torsions:
REMARK  status: ('A' for Active; 'I' for Inactive)
REMARK    1  A    between atoms: C_2  and  C_4 
REMARK    2  A    between atoms: C_7  and  O_8 
ROOT
HETATM    1  C   LIG     1      17.023  36.125  23.344  1.00  0.00    -0.050 A 
HETATM    2  C   LIG     1      17.161  34.956  24.129  1.00  0.00     0.011 A 
HETATM    3  C   LIG     1      17.639  35.018  25.440  1.00  0.00     0.037 A 
HETATM    4  C   LIG     1      17.993  36.248  26.003  1.00  0.00     0.065 A 
HETATM    5  C   LIG     1      17.865  37.414  25.247  1.00  0.00     0.037 A 
HETATM    6  C   LIG     1      17.387  37.358  23.935  1.00  0.00     0.011 A 
ENDROOT
BRANCH   1   7
HETATM    7  C   LIG     1      16.491  36.014  21.900  1.00  0.00    -0.024 C 
HETATM    8  C   LIG     1      17.441  36.768  20.943  1.00  0.00     0.019 C 
HETATM    9  C   LIG     1      16.385  34.553  21.403  1.00  0.00     0.019 C 
HETATM   10  C   LIG     1      15.081  36.640  21.822  1.00  0.00     0.019 C 
ENDBRANCH   1   7
BRANCH   4  11
HETATM   11  O   LIG     1      18.471  36.321  27.309  1.00  0.00    -0.361 OA
HETATM   12  H   LIG     1      18.486  37.196  27.820  1.00  0.00     0.217 HD
ENDBRANCH   4  11
TORSDOF 2
ENDMDL
MODEL 3
REMARK VINA RESULT:      -6.3      2.442      4.222
REMARK  2 active torsions:
REMARK  status: ('A' for Active; 'I' for Inactive)
REMARK    1  A    between atoms: C_2  and  C_4 
REMARK    2  A    between atoms: C_7  and  O_8 
ROOT
HETATM    1  C   LIG     1      18.255  38.073  20.882  1.00  0.00    -0.050 A 
HETATM    2  C   LIG     1      18.240  39.190  21.750  1.00  0.00     0.011 A 
HETATM    3  C   LIG     1      17.554  39.151  22.966  1.00  0.00     0.037 A 
HETATM    4  C   LIG     1      16.864  37.996  23.348  1.00  0.00     0.065 A 
HETATM    5  C   LIG     1      16.865  36.883  22.508  1.00  0.00     0.037 A 
HETATM    6  C   LIG     1      17.550  36.916  21.289  1.00  0.00     0.011 A 
ENDROOT
BRANCH   1   7
HETATM    7  C   LIG     1      19.024  38.156  19.547  1.00  0.00    -0.024 C 
HETATM    8  C   LIG     1      18.570  39.410  18.768  1.00  0.00     0.019 C 
HETATM    9  C   LIG     1      20.557  38.250  19.737  1.00  0.00     0.019 C 
HETATM   10  C   LIG     1      18.732  36.895  18.706  1.00  0.00     0.019 C 
ENDBRANCH   1   7
BRANCH   4  11
HETATM   11  O   LIG     1      16.176  37.947  24.558  1.00  0.00    -0.361 OA
HETATM   12  H   LIG     1      16.657  38.042  25.446  1.00  0.00     0.217 HD
ENDBRANCH   4  11
TORSDOF 2
ENDMDL
MODEL 4
REMARK VINA RESULT:      -5.7      2.944      4.402
REMARK  2 active torsions:
REMARK  status: ('A' for Active; 'I' for Inactive)
REMARK    1  A    between atoms: C_2  and  C_4 
REMARK    2  A    between atoms: C_7  and  O_8 
ROOT
HETATM    1  C   LIG     1      16.652  36.909  22.061  1.00  0.00    -0.050 A 
HETATM    2  C   LIG     1      15.240  36.851  21.984  1.00  0.00     0.011 A 
HETATM    3  C   LIG     1      14.589  35.704  21.524  1.00  0.00     0.037 A 
HETATM    4  C   LIG     1      15.327  34.585  21.131  1.00  0.00     0.065 A 
HETATM    5  C   LIG     1      16.720  34.619  21.199  1.00  0.00     0.037 A 
HETATM    6  C   LIG     1      17.379  35.764  21.658  1.00  0.00     0.011 A 
ENDROOT
BRANCH   1   7
HETATM    7  C   LIG     1      17.334  38.194  22.574  1.00  0.00    -0.024 C 
HETATM    8  C   LIG     1      16.288  39.326  22.678  1.00  0.00     0.019 C 
HETATM    9  C   LIG     1      17.980  38.021  23.970  1.00  0.00     0.019 C 
HETATM   10  C   LIG     1      18.448  38.613  21.590  1.00  0.00     0.019 C 
ENDBRANCH   1   7
BRANCH   4  11
HETATM   11  O   LIG     1      14.687  33.436  20.671  1.00  0.00    -0.361 OA
HETATM   12  H   LIG     1      13.777  33.479  20.227  1.00  0.00     0.217 HD
ENDBRANCH   4  11
TORSDOF 2
ENDMDL
MODEL 5
REMARK VINA RESULT:      -5.5      2.862      4.140
REMARK  2 active torsions:
REMARK  status: ('A' for Active; 'I' for Inactive)
REMARK    1  A    between atoms: C_2  and  C_4 
REMARK    2  A    between atoms: C_7  and  O_8 
ROOT
HETATM    1  C   LIG     1      16.886  36.668  22.592  1.00  0.00    -0.050 A 
HETATM    2  C   LIG     1      17.074  36.076  23.863  1.00  0.00     0.011 A 
HETATM    3  C   LIG     1      17.233  36.860  25.008  1.00  0.00     0.037 A 
HETATM    4  C   LIG     1      17.209  38.255  24.916  1.00  0.00     0.065 A 
HETATM    5  C   LIG     1      17.024  38.860  23.673  1.00  0.00     0.037 A 
HETATM    6  C   LIG     1      16.865  38.082  22.523  1.00  0.00     0.011 A 
ENDROOT
BRANCH   1   7
HETATM    7  C   LIG     1      16.714  35.768  21.350  1.00  0.00    -0.024 C 
HETATM    8  C   LIG     1      15.220  35.710  20.961  1.00  0.00     0.019 C 
HETATM    9  C   LIG     1      17.501  36.277  20.119  1.00  0.00     0.019 C 
HETATM   10  C   LIG     1      17.216  34.344  21.673  1.00  0.00     0.019 C 
ENDBRANCH   1   7
BRANCH   4  11
HETATM   11  O   LIG     1      17.367  39.045  26.051  1.00  0.00    -0.361 OA
HETATM   12  H   LIG     1      18.188  39.626  26.183  1.00  0.00     0.217 HD
ENDBRANCH   4  11
TORSDOF 2
ENDMDL
MODEL 6
REMARK VINA RESULT:      -5.2      8.023      9.811
REMARK  2 active torsions:
REMARK  status: ('A' for Active; 'I' for Inactive)
REMARK    1  A    between atoms: C_2  and  C_4 
REMARK    2  A    between atoms: C_7  and  O_8 
ROOT
HETATM    1  C   LIG     1      14.521  31.568  15.950  1.00  0.00    -0.050 A 
HETATM    2  C   LIG     1      15.141  30.955  14.836  1.00  0.00     0.011 A 
HETATM    3  C   LIG     1      14.497  29.948  14.113  1.00  0.00     0.037 A 
HETATM    4  C   LIG     1      13.216  29.526  14.483  1.00  0.00     0.065 A 
HETATM    5  C   LIG     1      12.585  30.116  15.578  1.00  0.00     0.037 A 
HETATM    6  C   LIG     1      13.224  31.124  16.305  1.00  0.00     0.011 A 
ENDROOT
BRANCH   1   7
HETATM    7  C   LIG     1      15.265  32.677  16.722  1.00  0.00    -0.024 C 
HETATM    8  C   LIG     1      16.620  32.960  16.037  1.00  0.00     0.019 C 
HETATM    9  C   LIG     1      14.479  34.008  16.779  1.00  0.00     0.019 C 
HETATM   10  C   LIG     1      15.511  32.215  18.175  1.00  0.00     0.019 C 
ENDBRANCH   1   7
BRANCH   4  11
HETATM   11  O   LIG     1      12.566  28.522  13.769  1.00  0.00    -0.361 OA
HETATM   12  H   LIG     1      12.392  27.610  14.176  1.00  0.00     0.217 HD
ENDBRANCH   4  11
TORSDOF 2
ENDMDL
MODEL 7
REMARK VINA RESULT:      -5.2      8.107      9.699
REMARK  2 active torsions:
REMARK  status: ('A' for Active; 'I' for Inactive)
REMARK    1  A    between atoms: C_2  and  C_4 
REMARK    2  A    between atoms: C_7  and  O_8 
ROOT
HETATM    1  C   LIG     1      14.425  31.352  15.749  1.00  0.00    -0.050 A 
HETATM    2  C   LIG     1      13.574  30.265  15.439  1.00  0.00     0.011 A 
HETATM    3  C   LIG     1      13.901  29.357  14.430  1.00  0.00     0.037 A 
HETATM    4  C   LIG     1      15.085  29.509  13.703  1.00  0.00     0.065 A 
HETATM    5  C   LIG     1      15.939  30.573  13.991  1.00  0.00     0.037 A 
HETATM    6  C   LIG     1      15.618  31.486  15.000  1.00  0.00     0.011 A 
ENDROOT
BRANCH   1   7
HETATM    7  C   LIG     1      14.029  32.334  16.871  1.00  0.00    -0.024 C 
HETATM    8  C   LIG     1      14.351  31.703  18.244  1.00  0.00     0.019 C 
HETATM    9  C   LIG     1      14.779  33.685  16.787  1.00  0.00     0.019 C 
HETATM   10  C   LIG     1      12.516  32.631  16.786  1.00  0.00     0.019 C 
ENDBRANCH   1   7
BRANCH   4  11
HETATM   11  O   LIG     1      15.420  28.609  12.693  1.00  0.00    -0.361 OA
HETATM   12  H   LIG     1      14.713  28.065  12.212  1.00  0.00     0.217 HD
ENDBRANCH   4  11
TORSDOF 2
ENDMDL
MODEL 8
REMARK VINA RESULT:      -5.1      8.084      9.789
REMARK  2 active torsions:
REMARK  status: ('A' for Active; 'I' for Inactive)
REMARK    1  A    between atoms: C_2  and  C_4 
REMARK    2  A    between atoms: C_7  and  O_8 
ROOT
HETATM    1  C   LIG     1      14.541  31.491  15.901  1.00  0.00    -0.050 A 
HETATM    2  C   LIG     1      13.219  31.110  16.235  1.00  0.00     0.011 A 
HETATM    3  C   LIG     1      12.555  30.109  15.522  1.00  0.00     0.037 A 
HETATM    4  C   LIG     1      13.190  29.462  14.458  1.00  0.00     0.065 A 
HETATM    5  C   LIG     1      14.492  29.821  14.112  1.00  0.00     0.037 A 
HETATM    6  C   LIG     1      15.163  30.822  14.821  1.00  0.00     0.011 A 
ENDROOT
BRANCH   1   7
HETATM    7  C   LIG     1      15.241  32.601  16.712  1.00  0.00    -0.024 C 
HETATM    8  C   LIG     1      14.328  33.845  16.777  1.00  0.00     0.019 C 
HETATM    9  C   LIG     1      15.563  32.178  18.165  1.00  0.00     0.019 C 
HETATM   10  C   LIG     1      16.573  32.976  16.027  1.00  0.00     0.019 C 
ENDBRANCH   1   7
BRANCH   4  11
HETATM   11  O   LIG     1      12.536  28.463  13.741  1.00  0.00    -0.361 OA
HETATM   12  H   LIG     1      12.426  28.518  12.735  1.00  0.00     0.217 HD
ENDBRANCH   4  11
TORSDOF 2
ENDMDL
MODEL 9
REMARK VINA RESULT:      -5.1      7.470      8.711
REMARK  2 active torsions:
REMARK  status: ('A' for Active; 'I' for Inactive)
REMARK    1  A    between atoms: C_2  and  C_4 
REMARK    2  A    between atoms: C_7  and  O_8 
ROOT
HETATM    1  C   LIG     1      14.882  31.864  15.650  1.00  0.00    -0.050 A 
HETATM    2  C   LIG     1      14.889  31.105  14.455  1.00  0.00     0.011 A 
HETATM    3  C   LIG     1      15.832  31.345  13.453  1.00  0.00     0.037 A 
HETATM    4  C   LIG     1      16.793  32.347  13.616  1.00  0.00     0.065 A 
HETATM    5  C   LIG     1      16.806  33.107  14.786  1.00  0.00     0.037 A 
HETATM    6  C   LIG     1      15.865  32.872  15.792  1.00  0.00     0.011 A 
ENDROOT
BRANCH   1   7
HETATM    7  C   LIG     1      13.824  31.569  16.733  1.00  0.00    -0.024 C 
HETATM    8  C   LIG     1      14.469  31.700  18.131  1.00  0.00     0.019 C 
HETATM    9  C   LIG     1      12.616  32.535  16.680  1.00  0.00     0.019 C 
HETATM   10  C   LIG     1      13.285  30.133  16.549  1.00  0.00     0.019 C 
ENDBRANCH   1   7
BRANCH   4  11
HETATM   11  O   LIG     1      17.738  32.594  12.623  1.00  0.00    -0.361 OA
HETATM   12  H   LIG     1      18.481  31.935  12.422  1.00  0.00     0.217 HD
ENDBRANCH   4  11
TORSDOF 2
ENDMDL
MODEL 10
REMARK VINA RESULT:      -4.9      7.577      9.327
REMARK  2 active torsions:
REMARK  status: ('A' for Active; 'I' for Inactive)
REMARK    1  A    between atoms: C_2  and  C_4 
REMARK    2  A    between atoms: C_7  and  O_8 
ROOT
HETATM    1  C   LIG     1      15.663  32.203  15.280  1.00  0.00    -0.050 A 
HETATM    2  C   LIG     1      15.010  32.645  16.455  1.00  0.00     0.011 A 
HETATM    3  C   LIG     1      13.887  31.979  16.951  1.00  0.00     0.037 A 
HETATM    4  C   LIG     1      13.385  30.855  16.289  1.00  0.00     0.065 A 
HETATM    5  C   LIG     1      14.013  30.401  15.129  1.00  0.00     0.037 A 
HETATM    6  C   LIG     1      15.137  31.063  14.627  1.00  0.00     0.011 A 
ENDROOT
BRANCH   1   7
HETATM    7  C   LIG     1      16.900  32.966  14.763  1.00  0.00    -0.024 C 
HETATM    8  C   LIG     1      16.847  34.428  15.257  1.00  0.00     0.019 C 
HETATM    9  C   LIG     1      18.236  32.354  15.249  1.00  0.00     0.019 C 
HETATM   10  C   LIG     1      16.910  32.945  13.219  1.00  0.00     0.019 C 
ENDBRANCH   1   7
BRANCH   4  11
HETATM   11  O   LIG     1      12.266  30.184  16.776  1.00  0.00    -0.361 OA
HETATM   12  H   LIG     1      11.912  30.352  17.711  1.00  0.00     0.217 HD
ENDBRANCH   4  11
TORSDOF 2
ENDMDL
MODEL 11
REMARK VINA RESULT:      -4.8      7.502      9.161
REMARK  2 active torsions:
REMARK  status: ('A' for Active; 'I' for Inactive)
REMARK    1  A    between atoms: C_2  and  C_4 
REMARK    2  A    between atoms: C_7  and  O_8 
ROOT
HETATM    1  C   LIG     1      14.848  31.117  15.476  1.00  0.00    -0.050 A 
HETATM    2  C   LIG     1      15.771  32.188  15.438  1.00  0.00     0.011 A 
HETATM    3  C   LIG     1      15.873  33.092  16.498  1.00  0.00     0.037 A 
HETATM    4  C   LIG     1      15.057  32.952  17.624  1.00  0.00     0.065 A 
HETATM    5  C   LIG     1      14.139  31.903  17.684  1.00  0.00     0.037 A 
HETATM    6  C   LIG     1      14.032  30.994  16.626  1.00  0.00     0.011 A 
ENDROOT
BRANCH   1   7
HETATM    7  C   LIG     1      14.766  30.139  14.286  1.00  0.00    -0.024 C 
HETATM    8  C   LIG     1      15.217  30.859  12.996  1.00  0.00     0.019 C 
HETATM    9  C   LIG     1      15.661  28.890  14.465  1.00  0.00     0.019 C 
HETATM   10  C   LIG     1      13.310  29.652  14.119  1.00  0.00     0.019 C 
ENDBRANCH   1   7
BRANCH   4  11
HETATM   11  O   LIG     1      15.150  33.848  18.685  1.00  0.00    -0.361 OA
HETATM   12  H   LIG     1      14.702  33.664  19.576  1.00  0.00     0.217 HD
ENDBRANCH   4  11
TORSDOF 2
ENDMDL
MODEL 12
REMARK VINA RESULT:      -4.7      8.841     10.487
REMARK  2 active torsions:
REMARK  status: ('A' for Active; 'I' for Inactive)
REMARK    1  A    between atoms: C_2  and  C_4 
REMARK    2  A    between atoms: C_7  and  O_8 
ROOT
HETATM    1  C   LIG     1      15.220  31.167  14.786  1.00  0.00    -0.050 A 
HETATM    2  C   LIG     1      13.978  31.129  15.463  1.00  0.00     0.011 A 
HETATM    3  C   LIG     1      13.078  30.080  15.262  1.00  0.00     0.037 A 
HETATM    4  C   LIG     1      13.392  29.042  14.380  1.00  0.00     0.065 A 
HETATM    5  C   LIG     1      14.610  29.059  13.701  1.00  0.00     0.037 A 
HETATM    6  C   LIG     1      15.516  30.106  13.898  1.00  0.00     0.011 A 
ENDROOT
BRANCH   1   7
HETATM    7  C   LIG     1      16.187  32.343  15.034  1.00  0.00    -0.024 C 
HETATM    8  C   LIG     1      17.520  31.802  15.599  1.00  0.00     0.019 C 
HETATM    9  C   LIG     1      16.512  33.143  13.750  1.00  0.00     0.019 C 
HETATM   10  C   LIG     1      15.558  33.321  16.050  1.00  0.00     0.019 C 
ENDBRANCH   1   7
BRANCH   4  11
HETATM   11  O   LIG     1      12.501  27.992  14.172  1.00  0.00    -0.361 OA
HETATM   12  H   LIG     1      11.499  28.126  14.241  1.00  0.00     0.217 HD
ENDBRANCH   4  11
TORSDOF 2
ENDMDL
MODEL 13
REMARK VINA RESULT:      -4.7      6.801      7.874
REMARK  2 active torsions:
REMARK  status: ('A' for Active; 'I' for Inactive)
REMARK    1  A    between atoms: C_2  and  C_4 
REMARK    2  A    between atoms: C_7  and  O_8 
ROOT
HETATM    1  C   LIG     1      15.588  32.703  15.706  1.00  0.00    -0.050 A 
HETATM    2  C   LIG     1      16.699  33.562  15.535  1.00  0.00     0.011 A 
HETATM    3  C   LIG     1      17.493  33.497  14.387  1.00  0.00     0.037 A 
HETATM    4  C   LIG     1      17.200  32.573  13.380  1.00  0.00     0.065 A 
HETATM    5  C   LIG     1      16.110  31.716  13.527  1.00  0.00     0.037 A 
HETATM    6  C   LIG     1      15.311  31.775  14.673  1.00  0.00     0.011 A 
ENDROOT
BRANCH   1   7
HETATM    7  C   LIG     1      14.736  32.805  16.987  1.00  0.00    -0.024 C 
HETATM    8  C   LIG     1      13.435  31.992  16.806  1.00  0.00     0.019 C 
HETATM    9  C   LIG     1      15.460  32.261  18.242  1.00  0.00     0.019 C 
HETATM   10  C   LIG     1      14.383  34.285  17.254  1.00  0.00     0.019 C 
ENDBRANCH   1   7
BRANCH   4  11
HETATM   11  O   LIG     1      17.985  32.500  12.232  1.00  0.00    -0.361 OA
HETATM   12  H   LIG     1      17.738  33.003  11.387  1.00  0.00     0.217 HD
ENDBRANCH   4  11
TORSDOF 2
ENDMDL
