MODEL 1
REMARK VINA RESULT:      -6.2      0.000      0.000
REMARK  2 active torsions:
REMARK  status: ('A' for Active; 'I' for Inactive)
REMARK    1  A    between atoms: C_2  and  C_3 
REMARK    2  A    between atoms: C_2  and  O_9 
ROOT
HETATM    1  C   LIG     1      17.088  37.155  24.707  1.00  0.00     0.084 C 
HETATM    2  C   LIG     1      17.123  35.698  24.208  1.00  0.00     0.015 C 
HETATM    3  C   LIG     1      17.197  34.719  25.386  1.00  0.00     0.001 C 
HETATM    4  C   LIG     1      18.405  35.022  26.281  1.00  0.00     0.000 C 
HETATM    5  C   LIG     1      18.373  36.472  26.779  1.00  0.00     0.001 C 
HETATM    6  C   LIG     1      18.303  37.457  25.605  1.00  0.00     0.015 C 
ENDROOT
BRANCH   1   7
HETATM    7  C   LIG     1      17.024  38.118  23.548  1.00  0.00     0.143 C 
HETATM    8  O   LIG     1      18.091  38.532  23.024  1.00  0.00    -0.650 OA
BRANCH   7   9
HETATM    9  O   LIG     1      15.805  38.562  23.041  1.00  0.00    -0.776 OA
HETATM   10  H   LIG     1      15.753  39.261  22.309  1.00  0.00     0.167 HD
ENDBRANCH   7   9
ENDBRANCH   1   7
TORSDOF 2
ENDMDL
MODEL 2
REMARK VINA RESULT:      -6.1      2.942      4.199
REMARK  2 active torsions:
REMARK  status: ('A' for Active; 'I' for Inactive)
REMARK    1  A    between atoms: C_2  and  C_3 
REMARK    2  A    between atoms: C_2  and  O_9 
ROOT
HETATM    1  C   LIG     1      17.476  37.788  22.520  1.00  0.00     0.084 C 
HETATM    2  C   LIG     1      17.133  36.818  21.373  1.00  0.00     0.015 C 
HETATM    3  C   LIG     1      18.316  36.673  20.408  1.00  0.00     0.001 C 
HETATM    4  C   LIG     1      18.751  38.038  19.860  1.00  0.00     0.000 C 
HETATM    5  C   LIG     1      19.093  39.006  20.999  1.00  0.00     0.001 C 
HETATM    6  C   LIG     1      17.912  39.159  21.966  1.00  0.00     0.015 C 
ENDROOT
BRANCH   1   7
HETATM    7  C   LIG     1      16.310  37.937  23.464  1.00  0.00     0.143 C 
HETATM    8  O   LIG     1      16.513  37.945  24.707  1.00  0.00    -0.650 OA
BRANCH   7   9
HETATM    9  O   LIG     1      15.006  38.067  22.991  1.00  0.00    -0.776 OA
HETATM   10  H   LIG     1      14.478  38.923  23.107  1.00  0.00     0.167 HD
ENDBRANCH   7   9
ENDBRANCH   1   7
TORSDOF 2
ENDMDL
MODEL 3
REMARK VINA RESULT:      -6.1      0.713      1.820
REMARK  2 active torsions:
REMARK  status: ('A' for Active; 'I' for Inactive)
REMARK    1  A    between atoms: C_2  and  C_3 
REMARK    2  A    between atoms: C_2  and  O_9 
ROOT
HETATM    1  C   LIG     1      17.394  37.227  24.219  1.00  0.00     0.084 C 
HETATM    2  C   LIG     1      17.568  37.709  25.672  1.00  0.00     0.015 C 
HETATM    3  C   LIG     1      18.441  36.732  26.470  1.00  0.00     0.001 C 
HETATM    4  C   LIG     1      17.861  35.313  26.428  1.00  0.00     0.000 C 
HETATM    5  C   LIG     1      17.687  34.831  24.982  1.00  0.00     0.001 C 
HETATM    6  C   LIG     1      16.811  35.802  24.180  1.00  0.00     0.015 C 
ENDROOT
BRANCH   1   7
HETATM    7  C   LIG     1      16.529  38.183  23.437  1.00  0.00     0.143 C 
HETATM    8  O   LIG     1      17.068  39.057  22.709  1.00  0.00    -0.650 OA
BRANCH   7   9
HETATM    9  O   LIG     1      15.138  38.121  23.502  1.00  0.00    -0.776 OA
HETATM   10  H   LIG     1      14.607  37.452  22.958  1.00  0.00     0.167 HD
ENDBRANCH   7   9
ENDBRANCH   1   7
TORSDOF 2
ENDMDL
MODEL 4
REMARK VINA RESULT:      -5.9      4.101      5.350
REMARK  2 active torsions:
REMARK  status: ('A' for Active; 'I' for Inactive)
REMARK    1  A    between atoms: C_2  and  C_3 
REMARK    2  A    between atoms: C_2  and  O_9 
ROOT
HETATM    1  C   LIG     1      19.048  38.244  20.273  1.00  0.00     0.084 C 
HETATM    2  C   LIG     1      18.120  39.060  21.192  1.00  0.00     0.015 C 
HETATM    3  C   LIG     1      17.584  38.191  22.337  1.00  0.00     0.001 C 
HETATM    4  C   LIG     1      16.866  36.947  21.797  1.00  0.00     0.000 C 
HETATM    5  C   LIG     1      17.788  36.134  20.881  1.00  0.00     0.001 C 
HETATM    6  C   LIG     1      18.324  36.996  19.731  1.00  0.00     0.015 C 
ENDROOT
BRANCH   1   7
HETATM    7  C   LIG     1      19.567  39.095  19.142  1.00  0.00     0.143 C 
HETATM    8  O   LIG     1      18.760  39.579  18.306  1.00  0.00    -0.650 OA
BRANCH   7   9
HETATM    9  O   LIG     1      20.928  39.362  19.002  1.00  0.00    -0.776 OA
HETATM   10  H   LIG     1      21.630  38.646  19.145  1.00  0.00     0.167 HD
ENDBRANCH   7   9
ENDBRANCH   1   7
TORSDOF 2
ENDMDL
MODEL 5
REMARK VINA RESULT:      -5.7      3.064      4.965
REMARK  2 active torsions:
REMARK  status: ('A' for Active; 'I' for Inactive)
REMARK    1  A    between atoms: C_2  and  C_3 
REMARK    2  A    between atoms: C_2  and  O_9 
ROOT
HETATM    1  C   LIG     1      17.361  37.873  21.548  1.00  0.00     0.084 C 
HETATM    2  C   LIG     1      18.443  38.946  21.768  1.00  0.00     0.015 C 
HETATM    3  C   LIG     1      19.112  39.327  20.441  1.00  0.00     0.001 C 
HETATM    4  C   LIG     1      19.697  38.093  19.743  1.00  0.00     0.000 C 
HETATM    5  C   LIG     1      18.621  37.023  19.523  1.00  0.00     0.001 C 
HETATM    6  C   LIG     1      17.951  36.634  20.847  1.00  0.00     0.015 C 
ENDROOT
BRANCH   1   7
HETATM    7  C   LIG     1      16.710  37.492  22.853  1.00  0.00     0.143 C 
HETATM    8  O   LIG     1      15.760  38.188  23.301  1.00  0.00    -0.650 OA
BRANCH   7   9
HETATM    9  O   LIG     1      17.136  36.382  23.579  1.00  0.00    -0.776 OA
HETATM   10  H   LIG     1      17.924  36.429  24.214  1.00  0.00     0.167 HD
ENDBRANCH   7   9
ENDBRANCH   1   7
TORSDOF 2
ENDMDL
MODEL 6
REMARK VINA RESULT:      -5.6      4.143      5.224
REMARK  2 active torsions:
REMARK  status: ('A' for Active; 'I' for Inactive)
REMARK    1  A    between atoms: C_2  and  C_3 
REMARK    2  A    between atoms: C_2  and  O_9 
ROOT
HETATM    1  C   LIG     1      17.972  36.665  20.927  1.00  0.00     0.084 C 
HETATM    2  C   LIG     1      18.539  36.986  19.531  1.00  0.00     0.015 C 
HETATM    3  C   LIG     1      19.656  38.033  19.624  1.00  0.00     0.001 C 
HETATM    4  C   LIG     1      19.164  39.307  20.322  1.00  0.00     0.000 C 
HETATM    5  C   LIG     1      18.598  38.990  21.711  1.00  0.00     0.001 C 
HETATM    6  C   LIG     1      17.477  37.947  21.626  1.00  0.00     0.015 C 
ENDROOT
BRANCH   1   7
HETATM    7  C   LIG     1      16.867  35.643  20.836  1.00  0.00     0.143 C 
HETATM    8  O   LIG     1      16.436  35.292  19.706  1.00  0.00    -0.650 OA
BRANCH   7   9
HETATM    9  O   LIG     1      16.309  35.074  21.979  1.00  0.00    -0.776 OA
HETATM   10  H   LIG     1      16.396  35.510  22.890  1.00  0.00     0.167 HD
ENDBRANCH   7   9
ENDBRANCH   1   7
TORSDOF 2
ENDMDL
MODEL 7
REMARK VINA RESULT:      -5.6      4.271      5.451
REMARK  2 active torsions:
REMARK  status: ('A' for Active; 'I' for Inactive)
REMARK    1  A    between atoms: C_2  and  C_3 
REMARK    2  A    between atoms: C_2  and  O_9 
ROOT
HETATM    1  C   LIG     1      18.564  38.561  19.547  1.00  0.00     0.084 C 
HETATM    2  C   LIG     1      18.779  37.041  19.672  1.00  0.00     0.015 C 
HETATM    3  C   LIG     1      17.708  36.411  20.572  1.00  0.00     0.001 C 
HETATM    4  C   LIG     1      17.686  37.077  21.953  1.00  0.00     0.000 C 
HETATM    5  C   LIG     1      17.473  38.591  21.832  1.00  0.00     0.001 C 
HETATM    6  C   LIG     1      18.543  39.228  20.936  1.00  0.00     0.015 C 
ENDROOT
BRANCH   1   7
HETATM    7  C   LIG     1      19.622  39.182  18.670  1.00  0.00     0.143 C 
HETATM    8  O   LIG     1      19.313  39.595  17.521  1.00  0.00    -0.650 OA
BRANCH   7   9
HETATM    9  O   LIG     1      20.940  39.310  19.104  1.00  0.00    -0.776 OA
HETATM   10  H   LIG     1      21.210  39.998  19.797  1.00  0.00     0.167 HD
ENDBRANCH   7   9
ENDBRANCH   1   7
TORSDOF 2
ENDMDL
MODEL 8
REMARK VINA RESULT:      -5.6      2.190      3.662
REMARK  2 active torsions:
REMARK  status: ('A' for Active; 'I' for Inactive)
REMARK    1  A    between atoms: C_2  and  C_3 
REMARK    2  A    between atoms: C_2  and  O_9 
ROOT
HETATM    1  C   LIG     1      16.847  37.152  23.833  1.00  0.00     0.084 C 
HETATM    2  C   LIG     1      17.687  37.961  22.826  1.00  0.00     0.015 C 
HETATM    3  C   LIG     1      17.373  37.533  21.386  1.00  0.00     0.001 C 
HETATM    4  C   LIG     1      17.592  36.026  21.198  1.00  0.00     0.000 C 
HETATM    5  C   LIG     1      16.758  35.219  22.200  1.00  0.00     0.001 C 
HETATM    6  C   LIG     1      17.069  35.639  23.642  1.00  0.00     0.015 C 
ENDROOT
BRANCH   1   7
HETATM    7  C   LIG     1      17.161  37.567  25.248  1.00  0.00     0.143 C 
HETATM    8  O   LIG     1      17.144  38.787  25.557  1.00  0.00    -0.650 OA
BRANCH   7   9
HETATM    9  O   LIG     1      17.472  36.625  26.227  1.00  0.00    -0.776 OA
HETATM   10  H   LIG     1      18.116  35.863  26.051  1.00  0.00     0.167 HD
ENDBRANCH   7   9
ENDBRANCH   1   7
TORSDOF 2
ENDMDL
MODEL 9
REMARK VINA RESULT:      -5.5      3.807      5.261
REMARK  2 active torsions:
REMARK  status: ('A' for Active; 'I' for Inactive)
REMARK    1  A    between atoms: C_2  and  C_3 
REMARK    2  A    between atoms: C_2  and  O_9 
ROOT
HETATM    1  C   LIG     1      17.429  36.860  20.770  1.00  0.00     0.084 C 
HETATM    2  C   LIG     1      17.684  37.783  21.977  1.00  0.00     0.015 C 
HETATM    3  C   LIG     1      18.154  39.168  21.514  1.00  0.00     0.001 C 
HETATM    4  C   LIG     1      19.403  39.061  20.631  1.00  0.00     0.000 C 
HETATM    5  C   LIG     1      19.152  38.142  19.430  1.00  0.00     0.001 C 
HETATM    6  C   LIG     1      18.686  36.754  19.885  1.00  0.00     0.015 C 
ENDROOT
BRANCH   1   7
HETATM    7  C   LIG     1      16.976  35.496  21.225  1.00  0.00     0.143 C 
HETATM    8  O   LIG     1      17.174  35.139  22.417  1.00  0.00    -0.650 OA
BRANCH   7   9
HETATM    9  O   LIG     1      16.339  34.615  20.353  1.00  0.00    -0.776 OA
HETATM   10  H   LIG     1      15.350  34.689  20.146  1.00  0.00     0.167 HD
ENDBRANCH   7   9
ENDBRANCH   1   7
TORSDOF 2
ENDMDL
MODEL 10
REMARK VINA RESULT:      -5.5      9.205     10.377
REMARK  2 active torsions:
REMARK  status: ('A' for Active; 'I' for Inactive)
REMARK    1  A    between atoms: C_2  and  C_3 
REMARK    2  A    between atoms: C_2  and  O_9 
ROOT
HETATM    1  C   LIG     1      15.000  32.318  16.649  1.00  0.00     0.084 C 
HETATM    2  C   LIG     1      13.486  32.096  16.828  1.00  0.00     0.015 C 
HETATM    3  C   LIG     1      13.096  30.661  16.452  1.00  0.00     0.001 C 
HETATM    4  C   LIG     1      13.534  30.327  15.020  1.00  0.00     0.000 C 
HETATM    5  C   LIG     1      15.040  30.548  14.840  1.00  0.00     0.001 C 
HETATM    6  C   LIG     1      15.436  31.983  15.210  1.00  0.00     0.015 C 
ENDROOT
BRANCH   1   7
HETATM    7  C   LIG     1      15.381  33.731  17.010  1.00  0.00     0.143 C 
HETATM    8  O   LIG     1      15.872  34.487  16.131  1.00  0.00    -0.650 OA
BRANCH   7   9
HETATM    9  O   LIG     1      15.203  34.223  18.302  1.00  0.00    -0.776 OA
HETATM   10  H   LIG     1      14.283  34.431  18.673  1.00  0.00     0.167 HD
ENDBRANCH   7   9
ENDBRANCH   1   7
TORSDOF 2
ENDMDL
MODEL 11
REMARK VINA RESULT:      -5.4      9.617     10.873
REMARK  2 active torsions:
REMARK  status: ('A' for Active; 'I' for Inactive)
REMARK    1  A    between atoms: C_2  and  C_3 
REMARK    2  A    between atoms: C_2  and  O_9 
ROOT
HETATM    1  C   LIG     1      14.462  32.036  16.363  1.00  0.00     0.084 C 
HETATM    2  C   LIG     1      15.788  31.900  15.590  1.00  0.00     0.015 C 
HETATM    3  C   LIG     1      15.540  31.380  14.169  1.00  0.00     0.001 C 
HETATM    4  C   LIG     1      14.780  30.047  14.193  1.00  0.00     0.000 C 
HETATM    5  C   LIG     1      13.460  30.180  14.962  1.00  0.00     0.001 C 
HETATM    6  C   LIG     1      13.701  30.696  16.387  1.00  0.00     0.015 C 
ENDROOT
BRANCH   1   7
HETATM    7  C   LIG     1      14.706  32.539  17.763  1.00  0.00     0.143 C 
HETATM    8  O   LIG     1      15.477  33.518  17.947  1.00  0.00    -0.650 OA
BRANCH   7   9
HETATM    9  O   LIG     1      14.095  31.943  18.865  1.00  0.00    -0.776 OA
HETATM   10  H   LIG     1      14.077  32.390  19.773  1.00  0.00     0.167 HD
ENDBRANCH   7   9
ENDBRANCH   1   7
TORSDOF 2
ENDMDL
MODEL 12
REMARK VINA RESULT:      -5.3      2.692      3.743
REMARK  2 active torsions:
REMARK  status: ('A' for Active; 'I' for Inactive)
REMARK    1  A    between atoms: C_2  and  C_3 
REMARK    2  A    between atoms: C_2  and  O_9 
ROOT
HETATM    1  C   LIG     1      17.683  35.799  24.744  1.00  0.00     0.084 C 
HETATM    2  C   LIG     1      16.922  35.128  23.585  1.00  0.00     0.015 C 
HETATM    3  C   LIG     1      16.917  36.028  22.342  1.00  0.00     0.001 C 
HETATM    4  C   LIG     1      16.325  37.407  22.662  1.00  0.00     0.000 C 
HETATM    5  C   LIG     1      17.081  38.076  23.816  1.00  0.00     0.001 C 
HETATM    6  C   LIG     1      17.086  37.184  25.063  1.00  0.00     0.015 C 
ENDROOT
BRANCH   1   7
HETATM    7  C   LIG     1      17.680  34.919  25.968  1.00  0.00     0.143 C 
HETATM    8  O   LIG     1      18.767  34.651  26.545  1.00  0.00    -0.650 OA
BRANCH   7   9
HETATM    9  O   LIG     1      16.496  34.392  26.480  1.00  0.00    -0.776 OA
HETATM   10  H   LIG     1      16.397  34.151  27.459  1.00  0.00     0.167 HD
ENDBRANCH   7   9
ENDBRANCH   1   7
TORSDOF 2
ENDMDL
MODEL 13
REMARK VINA RESULT:      -5.3      9.964     11.091
REMARK  2 active torsions:
REMARK  status: ('A' for Active; 'I' for Inactive)
REMARK    1  A    between atoms: C_2  and  C_3 
REMARK    2  A    between atoms: C_2  and  O_9 
ROOT
HETATM    1  C   LIG     1      15.940  31.917  15.516  1.00  0.00     0.084 C 
HETATM    2  C   LIG     1      14.765  32.365  16.406  1.00  0.00     0.015 C 
HETATM    3  C   LIG     1      13.847  31.181  16.736  1.00  0.00     0.001 C 
HETATM    4  C   LIG     1      13.339  30.504  15.457  1.00  0.00     0.000 C 
HETATM    5  C   LIG     1      14.507  30.057  14.569  1.00  0.00     0.001 C 
HETATM    6  C   LIG     1      15.427  31.238  14.232  1.00  0.00     0.015 C 
ENDROOT
BRANCH   1   7
HETATM    7  C   LIG     1      16.837  33.082  15.185  1.00  0.00     0.143 C 
HETATM    8  O   LIG     1      17.868  32.895  14.486  1.00  0.00    -0.650 OA
BRANCH   7   9
HETATM    9  O   LIG     1      16.551  34.369  15.636  1.00  0.00    -0.776 OA
HETATM   10  H   LIG     1      15.975  35.008  15.100  1.00  0.00     0.167 HD
ENDBRANCH   7   9
ENDBRANCH   1   7
TORSDOF 2
ENDMDL
MODEL 14
REMARK VINA RESULT:      -5.1     10.943     12.013
REMARK  2 active torsions:
REMARK  status: ('A' for Active; 'I' for Inactive)
REMARK    1  A    between atoms: C_2  and  C_3 
REMARK    2  A    between atoms: C_2  and  O_9 
ROOT
HETATM    1  C   LIG     1      14.063  30.693  14.913  1.00  0.00     0.084 C 
HETATM    2  C   LIG     1      13.463  30.682  16.332  1.00  0.00     0.015 C 
HETATM    3  C   LIG     1      13.602  32.059  16.993  1.00  0.00     0.001 C 
HETATM    4  C   LIG     1      15.067  32.513  17.020  1.00  0.00     0.000 C 
HETATM    5  C   LIG     1      15.666  32.524  15.609  1.00  0.00     0.001 C 
HETATM    6  C   LIG     1      15.534  31.148  14.943  1.00  0.00     0.015 C 
ENDROOT
BRANCH   1   7
HETATM    7  C   LIG     1      13.934  29.337  14.266  1.00  0.00     0.143 C 
HETATM    8  O   LIG     1      14.971  28.685  13.975  1.00  0.00    -0.650 OA
BRANCH   7   9
HETATM    9  O   LIG     1      12.686  28.785  13.981  1.00  0.00    -0.776 OA
HETATM   10  H   LIG     1      12.333  27.977  14.480  1.00  0.00     0.167 HD
ENDBRANCH   7   9
ENDBRANCH   1   7
TORSDOF 2
ENDMDL
MODEL 15
REMARK VINA RESULT:      -5.1      2.644      3.638
REMARK  2 active torsions:
REMARK  status: ('A' for Active; 'I' for Inactive)
REMARK    1  A    between atoms: C_2  and  C_3 
REMARK    2  A    between atoms: C_2  and  O_9 
ROOT
HETATM    1  C   LIG     1      16.664  36.553  22.016  1.00  0.00     0.084 C 
HETATM    2  C   LIG     1      17.145  35.882  23.317  1.00  0.00     0.015 C 
HETATM    3  C   LIG     1      17.045  36.853  24.501  1.00  0.00     0.001 C 
HETATM    4  C   LIG     1      17.831  38.142  24.225  1.00  0.00     0.000 C 
HETATM    5  C   LIG     1      17.355  38.811  22.930  1.00  0.00     0.001 C 
HETATM    6  C   LIG     1      17.455  37.846  21.741  1.00  0.00     0.015 C 
ENDROOT
BRANCH   1   7
HETATM    7  C   LIG     1      16.770  35.601  20.852  1.00  0.00     0.143 C 
HETATM    8  O   LIG     1      17.399  35.950  19.818  1.00  0.00    -0.650 OA
BRANCH   7   9
HETATM    9  O   LIG     1      16.184  34.337  20.892  1.00  0.00    -0.776 OA
HETATM   10  H   LIG     1      15.918  33.900  21.766  1.00  0.00     0.167 HD
ENDBRANCH   7   9
ENDBRANCH   1   7
TORSDOF 2
ENDMDL
MODEL 16
REMARK VINA RESULT:      -5.1      9.548     10.602
REMARK  2 active torsions:
REMARK  status: ('A' for Active; 'I' for Inactive)
REMARK    1  A    between atoms: C_2  and  C_3 
REMARK    2  A    between atoms: C_2  and  O_9 
ROOT
HETATM    1  C   LIG     1      15.348  32.612  15.482  1.00  0.00     0.084 C 
HETATM    2  C   LIG     1      15.422  31.160  14.973  1.00  0.00     0.015 C 
HETATM    3  C   LIG     1      14.040  30.496  15.013  1.00  0.00     0.001 C 
HETATM    4  C   LIG     1      13.442  30.552  16.425  1.00  0.00     0.000 C 
HETATM    5  C   LIG     1      13.367  31.996  16.934  1.00  0.00     0.001 C 
HETATM    6  C   LIG     1      14.747  32.665  16.901  1.00  0.00     0.015 C 
ENDROOT
BRANCH   1   7
HETATM    7  C   LIG     1      16.708  33.262  15.451  1.00  0.00     0.143 C 
HETATM    8  O   LIG     1      16.807  34.506  15.616  1.00  0.00    -0.650 OA
BRANCH   7   9
HETATM    9  O   LIG     1      17.864  32.513  15.242  1.00  0.00    -0.776 OA
HETATM   10  H   LIG     1      18.704  32.925  14.852  1.00  0.00     0.167 HD
ENDBRANCH   7   9
ENDBRANCH   1   7
TORSDOF 2
ENDMDL
MODEL 17
REMARK VINA RESULT:      -4.9     10.349     11.430
REMARK  2 active torsions:
REMARK  status: ('A' for Active; 'I' for Inactive)
REMARK    1  A    between atoms: C_2  and  C_3 
REMARK    2  A    between atoms: C_2  and  O_9 
ROOT
HETATM    1  C   LIG     1      15.459  31.380  15.055  1.00  0.00     0.084 C 
HETATM    2  C   LIG     1      15.580  32.735  15.777  1.00  0.00     0.015 C 
HETATM    3  C   LIG     1      15.166  32.608  17.249  1.00  0.00     0.001 C 
HETATM    4  C   LIG     1      13.745  32.044  17.376  1.00  0.00     0.000 C 
HETATM    5  C   LIG     1      13.622  30.695  16.657  1.00  0.00     0.001 C 
HETATM    6  C   LIG     1      14.030  30.816  15.183  1.00  0.00     0.015 C 
ENDROOT
BRANCH   1   7
HETATM    7  C   LIG     1      15.857  31.507  13.606  1.00  0.00     0.143 C 
HETATM    8  O   LIG     1      15.916  30.477  12.884  1.00  0.00    -0.650 OA
BRANCH   7   9
HETATM    9  O   LIG     1      16.163  32.745  13.044  1.00  0.00    -0.776 OA
HETATM   10  H   LIG     1      16.766  33.410  13.513  1.00  0.00     0.167 HD
ENDBRANCH   7   9
ENDBRANCH   1   7
TORSDOF 2
ENDMDL
MODEL 18
REMARK VINA RESULT:      -4.8      3.898      4.857
REMARK  2 active torsions:
REMARK  status: ('A' for Active; 'I' for Inactive)
REMARK    1  A    between atoms: C_2  and  C_3 
REMARK    2  A    between atoms: C_2  and  O_9 
ROOT
HETATM    1  C   LIG     1      16.105  36.177  21.102  1.00  0.00     0.084 C 
HETATM    2  C   LIG     1      15.908  36.746  22.520  1.00  0.00     0.015 C 
HETATM    3  C   LIG     1      16.456  38.176  22.615  1.00  0.00     0.001 C 
HETATM    4  C   LIG     1      17.933  38.229  22.203  1.00  0.00     0.000 C 
HETATM    5  C   LIG     1      18.132  37.662  20.793  1.00  0.00     0.001 C 
HETATM    6  C   LIG     1      17.589  36.230  20.692  1.00  0.00     0.015 C 
ENDROOT
BRANCH   1   7
HETATM    7  C   LIG     1      15.574  34.768  21.011  1.00  0.00     0.143 C 
HETATM    8  O   LIG     1      14.644  34.404  21.777  1.00  0.00    -0.650 OA
BRANCH   7   9
HETATM    9  O   LIG     1      16.092  33.856  20.094  1.00  0.00    -0.776 OA
HETATM   10  H   LIG     1      15.509  33.413  19.394  1.00  0.00     0.167 HD
ENDBRANCH   7   9
ENDBRANCH   1   7
TORSDOF 2
ENDMDL
MODEL 19
REMARK VINA RESULT:      -4.8      9.930     11.206
REMARK  2 active torsions:
REMARK  status: ('A' for Active; 'I' for Inactive)
REMARK    1  A    between atoms: C_2  and  C_3 
REMARK    2  A    between atoms: C_2  and  O_9 
ROOT
HETATM    1  C   LIG     1      14.319  31.729  15.930  1.00  0.00     0.084 C 
HETATM    2  C   LIG     1      15.436  32.559  16.590  1.00  0.00     0.015 C 
HETATM    3  C   LIG     1      16.256  33.310  15.533  1.00  0.00     0.001 C 
HETATM    4  C   LIG     1      16.833  32.342  14.492  1.00  0.00     0.000 C 
HETATM    5  C   LIG     1      15.722  31.514  13.834  1.00  0.00     0.001 C 
HETATM    6  C   LIG     1      14.901  30.757  14.886  1.00  0.00     0.015 C 
ENDROOT
BRANCH   1   7
HETATM    7  C   LIG     1      13.519  30.984  16.969  1.00  0.00     0.143 C 
HETATM    8  O   LIG     1      13.881  31.017  18.174  1.00  0.00    -0.650 OA
BRANCH   7   9
HETATM    9  O   LIG     1      12.382  30.257  16.624  1.00  0.00    -0.776 OA
HETATM   10  H   LIG     1      12.399  29.550  15.898  1.00  0.00     0.167 HD
ENDBRANCH   7   9
ENDBRANCH   1   7
TORSDOF 2
ENDMDL
MODEL 20
REMARK VINA RESULT:      -4.1      8.614      9.734
REMARK  2 active torsions:
REMARK  status: ('A' for Active; 'I' for Inactive)
REMARK    1  A    between atoms: C_2  and  C_3 
REMARK    2  A    between atoms: C_2  and  O_9 
ROOT
HETATM    1  C   LIG     1      14.536  31.748  17.044  1.00  0.00     0.084 C 
HETATM    2  C   LIG     1      14.354  33.243  16.721  1.00  0.00     0.015 C 
HETATM    3  C   LIG     1      15.352  34.098  17.512  1.00  0.00     0.001 C 
HETATM    4  C   LIG     1      15.223  33.842  19.020  1.00  0.00     0.000 C 
HETATM    5  C   LIG     1      15.403  32.355  19.344  1.00  0.00     0.001 C 
HETATM    6  C   LIG     1      14.405  31.494  18.558  1.00  0.00     0.015 C 
ENDROOT
BRANCH   1   7
HETATM    7  C   LIG     1      13.550  30.909  16.272  1.00  0.00     0.143 C 
HETATM    8  O   LIG     1      13.819  30.558  15.093  1.00  0.00    -0.650 OA
BRANCH   7   9
HETATM    9  O   LIG     1      12.340  30.509  16.836  1.00  0.00    -0.776 OA
HETATM   10  H   LIG     1      11.771  31.143  17.386  1.00  0.00     0.167 HD
ENDBRANCH   7   9
ENDBRANCH   1   7
TORSDOF 2
ENDMDL
