MODEL 1
REMARK VINA RESULT:      -6.8      0.000      0.000
REMARK  1 active torsions:
REMARK  status: ('A' for Active; 'I' for Inactive)
REMARK    1  A    between atoms: C_2  and  C_3 
ROOT
HETATM    1  C   LIG     1      17.254  36.959  24.382  1.00  0.00     0.009 A 
HETATM    2  C   LIG     1      17.954  37.535  25.461  1.00  0.00     0.015 A 
HETATM    3  C   LIG     1      18.460  36.734  26.489  1.00  0.00     0.001 A 
HETATM    4  C   LIG     1      18.276  35.350  26.455  1.00  0.00     0.000 A 
HETATM    5  C   LIG     1      17.585  34.765  25.392  1.00  0.00     0.001 A 
HETATM    6  C   LIG     1      17.077  35.561  24.361  1.00  0.00     0.015 A 
ENDROOT
BRANCH   1   7
HETATM    7  C   LIG     1      16.721  37.824  23.295  1.00  0.00     0.155 C 
HETATM    8  C   LIG     1      17.615  38.432  22.256  1.00  0.00     0.096 C 
HETATM    9  O   LIG     1      15.484  38.062  23.233  1.00  0.00    -0.293 OA
ENDBRANCH   1   7
TORSDOF 1
ENDMDL
MODEL 2
REMARK VINA RESULT:      -6.4      3.344      5.080
REMARK  1 active torsions:
REMARK  status: ('A' for Active; 'I' for Inactive)
REMARK    1  A    between atoms: C_2  and  C_3 
ROOT
HETATM    1  C   LIG     1      17.880  36.915  20.770  1.00  0.00     0.009 A 
HETATM    2  C   LIG     1      17.748  38.055  21.589  1.00  0.00     0.015 A 
HETATM    3  C   LIG     1      18.528  39.192  21.358  1.00  0.00     0.001 A 
HETATM    4  C   LIG     1      19.450  39.208  20.309  1.00  0.00     0.000 A 
HETATM    5  C   LIG     1      19.592  38.086  19.489  1.00  0.00     0.001 A 
HETATM    6  C   LIG     1      18.814  36.947  19.715  1.00  0.00     0.015 A 
ENDROOT
BRANCH   1   7
HETATM    7  C   LIG     1      17.043  35.712  21.028  1.00  0.00     0.155 C 
HETATM    8  C   LIG     1      16.835  35.173  22.411  1.00  0.00     0.096 C 
HETATM    9  O   LIG     1      16.486  35.119  20.064  1.00  0.00    -0.293 OA
ENDBRANCH   1   7
TORSDOF 1
ENDMDL
MODEL 3
REMARK VINA RESULT:      -6.3      2.106      4.374
REMARK  1 active torsions:
REMARK  status: ('A' for Active; 'I' for Inactive)
REMARK    1  A    between atoms: C_2  and  C_3 
ROOT
HETATM    1  C   LIG     1      17.563  38.019  21.979  1.00  0.00     0.009 A 
HETATM    2  C   LIG     1      18.335  39.139  21.612  1.00  0.00     0.015 A 
HETATM    3  C   LIG     1      19.136  39.107  20.467  1.00  0.00     0.001 A 
HETATM    4  C   LIG     1      19.180  37.958  19.674  1.00  0.00     0.000 A 
HETATM    5  C   LIG     1      18.420  36.840  20.025  1.00  0.00     0.001 A 
HETATM    6  C   LIG     1      17.616  36.867  21.168  1.00  0.00     0.015 A 
ENDROOT
BRANCH   1   7
HETATM    7  C   LIG     1      16.714  38.068  23.200  1.00  0.00     0.155 C 
HETATM    8  C   LIG     1      17.306  38.075  24.577  1.00  0.00     0.096 C 
HETATM    9  O   LIG     1      15.458  38.105  23.088  1.00  0.00    -0.293 OA
ENDBRANCH   1   7
TORSDOF 1
ENDMDL
MODEL 4
REMARK VINA RESULT:      -6.2      1.593      3.417
REMARK  1 active torsions:
REMARK  status: ('A' for Active; 'I' for Inactive)
REMARK    1  A    between atoms: C_2  and  C_3 
ROOT
HETATM    1  C   LIG     1      17.317  36.920  23.980  1.00  0.00     0.009 A 
HETATM    2  C   LIG     1      17.428  37.807  22.891  1.00  0.00     0.015 A 
HETATM    3  C   LIG     1      17.294  37.343  21.579  1.00  0.00     0.001 A 
HETATM    4  C   LIG     1      17.047  35.991  21.335  1.00  0.00     0.000 A 
HETATM    5  C   LIG     1      16.933  35.099  22.404  1.00  0.00     0.001 A 
HETATM    6  C   LIG     1      17.066  35.557  23.718  1.00  0.00     0.015 A 
ENDROOT
BRANCH   1   7
HETATM    7  C   LIG     1      17.461  37.427  25.371  1.00  0.00     0.155 C 
HETATM    8  C   LIG     1      18.244  36.680  26.409  1.00  0.00     0.096 C 
HETATM    9  O   LIG     1      16.915  38.515  25.701  1.00  0.00    -0.293 OA
ENDBRANCH   1   7
TORSDOF 1
ENDMDL
MODEL 5
REMARK VINA RESULT:      -6.1      1.601      3.645
REMARK  1 active torsions:
REMARK  status: ('A' for Active; 'I' for Inactive)
REMARK    1  A    between atoms: C_2  and  C_3 
ROOT
HETATM    1  C   LIG     1      17.347  36.980  23.985  1.00  0.00     0.009 A 
HETATM    2  C   LIG     1      17.096  35.609  23.776  1.00  0.00     0.015 A 
HETATM    3  C   LIG     1      16.936  35.104  22.482  1.00  0.00     0.001 A 
HETATM    4  C   LIG     1      17.024  35.959  21.380  1.00  0.00     0.000 A 
HETATM    5  C   LIG     1      17.273  37.319  21.572  1.00  0.00     0.001 A 
HETATM    6  C   LIG     1      17.434  37.829  22.864  1.00  0.00     0.015 A 
ENDROOT
BRANCH   1   7
HETATM    7  C   LIG     1      17.516  37.502  25.368  1.00  0.00     0.155 C 
HETATM    8  C   LIG     1      18.198  36.704  26.439  1.00  0.00     0.096 C 
HETATM    9  O   LIG     1      17.077  38.648  25.663  1.00  0.00    -0.293 OA
ENDBRANCH   1   7
TORSDOF 1
ENDMDL
MODEL 6
REMARK VINA RESULT:      -6.1      3.737      4.919
REMARK  1 active torsions:
REMARK  status: ('A' for Active; 'I' for Inactive)
REMARK    1  A    between atoms: C_2  and  C_3 
ROOT
HETATM    1  C   LIG     1      18.614  38.204  20.162  1.00  0.00     0.009 A 
HETATM    2  C   LIG     1      18.134  38.914  21.281  1.00  0.00     0.015 A 
HETATM    3  C   LIG     1      17.374  38.269  22.261  1.00  0.00     0.001 A 
HETATM    4  C   LIG     1      17.082  36.909  22.139  1.00  0.00     0.000 A 
HETATM    5  C   LIG     1      17.550  36.192  21.036  1.00  0.00     0.001 A 
HETATM    6  C   LIG     1      18.311  36.831  20.053  1.00  0.00     0.015 A 
ENDROOT
BRANCH   1   7
HETATM    7  C   LIG     1      19.422  38.904  19.127  1.00  0.00     0.155 C 
HETATM    8  C   LIG     1      18.901  39.139  17.741  1.00  0.00     0.096 C 
HETATM    9  O   LIG     1      20.581  39.315  19.409  1.00  0.00    -0.293 OA
ENDBRANCH   1   7
TORSDOF 1
ENDMDL
MODEL 7
REMARK VINA RESULT:      -5.9      3.377      4.705
REMARK  1 active torsions:
REMARK  status: ('A' for Active; 'I' for Inactive)
REMARK    1  A    between atoms: C_2  and  C_3 
ROOT
HETATM    1  C   LIG     1      18.401  38.013  20.571  1.00  0.00     0.009 A 
HETATM    2  C   LIG     1      18.132  36.662  20.274  1.00  0.00     0.015 A 
HETATM    3  C   LIG     1      17.339  35.890  21.127  1.00  0.00     0.001 A 
HETATM    4  C   LIG     1      16.803  36.453  22.287  1.00  0.00     0.000 A 
HETATM    5  C   LIG     1      17.059  37.791  22.595  1.00  0.00     0.001 A 
HETATM    6  C   LIG     1      17.851  38.568  21.745  1.00  0.00     0.015 A 
ENDROOT
BRANCH   1   7
HETATM    7  C   LIG     1      19.246  38.823  19.653  1.00  0.00     0.155 C 
HETATM    8  C   LIG     1      20.710  38.550  19.476  1.00  0.00     0.096 C 
HETATM    9  O   LIG     1      18.731  39.771  18.999  1.00  0.00    -0.293 OA
ENDBRANCH   1   7
TORSDOF 1
ENDMDL
MODEL 8
REMARK VINA RESULT:      -5.5      2.410      3.554
REMARK  1 active torsions:
REMARK  status: ('A' for Active; 'I' for Inactive)
REMARK    1  A    between atoms: C_2  and  C_3 
ROOT
HETATM    1  C   LIG     1      17.048  36.497  22.071  1.00  0.00     0.009 A 
HETATM    2  C   LIG     1      17.021  35.885  23.340  1.00  0.00     0.015 A 
HETATM    3  C   LIG     1      17.190  36.646  24.501  1.00  0.00     0.001 A 
HETATM    4  C   LIG     1      17.389  38.025  24.412  1.00  0.00     0.000 A 
HETATM    5  C   LIG     1      17.418  38.646  23.162  1.00  0.00     0.001 A 
HETATM    6  C   LIG     1      17.249  37.891  21.998  1.00  0.00     0.015 A 
ENDROOT
BRANCH   1   7
HETATM    7  C   LIG     1      16.866  35.675  20.844  1.00  0.00     0.155 C 
HETATM    8  C   LIG     1      15.992  34.457  20.830  1.00  0.00     0.096 C 
HETATM    9  O   LIG     1      17.458  36.000  19.779  1.00  0.00    -0.293 OA
ENDBRANCH   1   7
TORSDOF 1
ENDMDL
MODEL 9
REMARK VINA RESULT:      -5.5      9.509     10.463
REMARK  1 active torsions:
REMARK  status: ('A' for Active; 'I' for Inactive)
REMARK    1  A    between atoms: C_2  and  C_3 
ROOT
HETATM    1  C   LIG     1      15.404  32.461  15.697  1.00  0.00     0.009 A 
HETATM    2  C   LIG     1      14.483  32.661  16.745  1.00  0.00     0.015 A 
HETATM    3  C   LIG     1      13.435  31.760  16.953  1.00  0.00     0.001 A 
HETATM    4  C   LIG     1      13.291  30.648  16.119  1.00  0.00     0.000 A 
HETATM    5  C   LIG     1      14.195  30.437  15.077  1.00  0.00     0.001 A 
HETATM    6  C   LIG     1      15.246  31.334  14.865  1.00  0.00     0.015 A 
ENDROOT
BRANCH   1   7
HETATM    7  C   LIG     1      16.516  33.429  15.488  1.00  0.00     0.155 C 
HETATM    8  C   LIG     1      17.751  33.062  14.722  1.00  0.00     0.096 C 
HETATM    9  O   LIG     1      16.429  34.594  15.964  1.00  0.00    -0.293 OA
ENDBRANCH   1   7
TORSDOF 1
ENDMDL
MODEL 10
REMARK VINA RESULT:      -5.5      9.929     11.053
REMARK  1 active torsions:
REMARK  status: ('A' for Active; 'I' for Inactive)
REMARK    1  A    between atoms: C_2  and  C_3 
ROOT
HETATM    1  C   LIG     1      14.863  31.811  15.906  1.00  0.00     0.009 A 
HETATM    2  C   LIG     1      13.677  31.078  16.110  1.00  0.00     0.015 A 
HETATM    3  C   LIG     1      13.319  30.046  15.237  1.00  0.00     0.001 A 
HETATM    4  C   LIG     1      14.137  29.733  14.149  1.00  0.00     0.000 A 
HETATM    5  C   LIG     1      15.315  30.450  13.934  1.00  0.00     0.001 A 
HETATM    6  C   LIG     1      15.679  31.482  14.804  1.00  0.00     0.015 A 
ENDROOT
BRANCH   1   7
HETATM    7  C   LIG     1      15.232  32.906  16.844  1.00  0.00     0.155 C 
HETATM    8  C   LIG     1      15.140  32.739  18.331  1.00  0.00     0.096 C 
HETATM    9  O   LIG     1      15.635  34.011  16.389  1.00  0.00    -0.293 OA
ENDBRANCH   1   7
TORSDOF 1
ENDMDL
MODEL 11
REMARK VINA RESULT:      -5.4      9.916     10.999
REMARK  1 active torsions:
REMARK  status: ('A' for Active; 'I' for Inactive)
REMARK    1  A    between atoms: C_2  and  C_3 
ROOT
HETATM    1  C   LIG     1      15.411  32.145  15.403  1.00  0.00     0.009 A 
HETATM    2  C   LIG     1      15.437  31.214  14.345  1.00  0.00     0.015 A 
HETATM    3  C   LIG     1      14.500  30.178  14.286  1.00  0.00     0.001 A 
HETATM    4  C   LIG     1      13.527  30.056  15.280  1.00  0.00     0.000 A 
HETATM    5  C   LIG     1      13.488  30.970  16.334  1.00  0.00     0.001 A 
HETATM    6  C   LIG     1      14.422  32.009  16.398  1.00  0.00     0.015 A 
ENDROOT
BRANCH   1   7
HETATM    7  C   LIG     1      16.414  33.243  15.453  1.00  0.00     0.155 C 
HETATM    8  C   LIG     1      17.747  33.130  14.775  1.00  0.00     0.096 C 
HETATM    9  O   LIG     1      16.149  34.305  16.080  1.00  0.00    -0.293 OA
ENDBRANCH   1   7
TORSDOF 1
ENDMDL
MODEL 12
REMARK VINA RESULT:      -5.4     10.855     11.803
REMARK  1 active torsions:
REMARK  status: ('A' for Active; 'I' for Inactive)
REMARK    1  A    between atoms: C_2  and  C_3 
ROOT
HETATM    1  C   LIG     1      14.671  30.709  14.949  1.00  0.00     0.009 A 
HETATM    2  C   LIG     1      15.336  31.794  15.555  1.00  0.00     0.015 A 
HETATM    3  C   LIG     1      14.733  32.508  16.595  1.00  0.00     0.001 A 
HETATM    4  C   LIG     1      13.460  32.150  17.045  1.00  0.00     0.000 A 
HETATM    5  C   LIG     1      12.788  31.078  16.455  1.00  0.00     0.001 A 
HETATM    6  C   LIG     1      13.386  30.360  15.415  1.00  0.00     0.015 A 
ENDROOT
BRANCH   1   7
HETATM    7  C   LIG     1      15.325  29.958  13.844  1.00  0.00     0.155 C 
HETATM    8  C   LIG     1      15.238  28.465  13.741  1.00  0.00     0.096 C 
HETATM    9  O   LIG     1      15.974  30.583  12.961  1.00  0.00    -0.293 OA
ENDBRANCH   1   7
TORSDOF 1
ENDMDL
MODEL 13
REMARK VINA RESULT:      -5.3     10.690     11.717
REMARK  1 active torsions:
REMARK  status: ('A' for Active; 'I' for Inactive)
REMARK    1  A    between atoms: C_2  and  C_3 
ROOT
HETATM    1  C   LIG     1      14.320  30.630  15.213  1.00  0.00     0.009 A 
HETATM    2  C   LIG     1      13.397  30.910  16.241  1.00  0.00     0.015 A 
HETATM    3  C   LIG     1      13.564  32.029  17.062  1.00  0.00     0.001 A 
HETATM    4  C   LIG     1      14.653  32.883  16.870  1.00  0.00     0.000 A 
HETATM    5  C   LIG     1      15.575  32.619  15.856  1.00  0.00     0.001 A 
HETATM    6  C   LIG     1      15.413  31.502  15.031  1.00  0.00     0.015 A 
ENDROOT
BRANCH   1   7
HETATM    7  C   LIG     1      14.129  29.435  14.347  1.00  0.00     0.155 C 
HETATM    8  C   LIG     1      15.288  28.711  13.729  1.00  0.00     0.096 C 
HETATM    9  O   LIG     1      12.964  29.009  14.116  1.00  0.00    -0.293 OA
ENDBRANCH   1   7
TORSDOF 1
ENDMDL
MODEL 14
REMARK VINA RESULT:      -5.3     10.193     11.208
REMARK  1 active torsions:
REMARK  status: ('A' for Active; 'I' for Inactive)
REMARK    1  A    between atoms: C_2  and  C_3 
ROOT
HETATM    1  C   LIG     1      15.622  31.989  14.948  1.00  0.00     0.009 A 
HETATM    2  C   LIG     1      14.957  30.860  14.430  1.00  0.00     0.015 A 
HETATM    3  C   LIG     1      13.896  30.276  15.128  1.00  0.00     0.001 A 
HETATM    4  C   LIG     1      13.484  30.809  16.351  1.00  0.00     0.000 A 
HETATM    5  C   LIG     1      14.133  31.928  16.877  1.00  0.00     0.001 A 
HETATM    6  C   LIG     1      15.194  32.516  16.184  1.00  0.00     0.015 A 
ENDROOT
BRANCH   1   7
HETATM    7  C   LIG     1      16.749  32.600  14.194  1.00  0.00     0.155 C 
HETATM    8  C   LIG     1      17.523  33.766  14.732  1.00  0.00     0.096 C 
HETATM    9  O   LIG     1      17.075  32.135  13.067  1.00  0.00    -0.293 OA
ENDBRANCH   1   7
TORSDOF 1
ENDMDL
MODEL 15
REMARK VINA RESULT:      -5.1     10.582     11.599
REMARK  1 active torsions:
REMARK  status: ('A' for Active; 'I' for Inactive)
REMARK    1  A    between atoms: C_2  and  C_3 
ROOT
HETATM    1  C   LIG     1      14.625  30.832  15.150  1.00  0.00     0.009 A 
HETATM    2  C   LIG     1      15.678  31.749  14.957  1.00  0.00     0.015 A 
HETATM    3  C   LIG     1      15.844  32.835  15.821  1.00  0.00     0.001 A 
HETATM    4  C   LIG     1      14.963  33.022  16.888  1.00  0.00     0.000 A 
HETATM    5  C   LIG     1      13.915  32.122  17.093  1.00  0.00     0.001 A 
HETATM    6  C   LIG     1      13.745  31.034  16.233  1.00  0.00     0.015 A 
ENDROOT
BRANCH   1   7
HETATM    7  C   LIG     1      14.462  29.680  14.222  1.00  0.00     0.155 C 
HETATM    8  C   LIG     1      13.177  28.913  14.131  1.00  0.00     0.096 C 
HETATM    9  O   LIG     1      15.424  29.328  13.486  1.00  0.00    -0.293 OA
ENDBRANCH   1   7
TORSDOF 1
ENDMDL
MODEL 16
REMARK VINA RESULT:      -4.8      9.834     11.077
REMARK  1 active torsions:
REMARK  status: ('A' for Active; 'I' for Inactive)
REMARK    1  A    between atoms: C_2  and  C_3 
ROOT
HETATM    1  C   LIG     1      14.919  31.712  15.703  1.00  0.00     0.009 A 
HETATM    2  C   LIG     1      15.774  32.774  16.058  1.00  0.00     0.015 A 
HETATM    3  C   LIG     1      16.734  33.247  15.158  1.00  0.00     0.001 A 
HETATM    4  C   LIG     1      16.853  32.669  13.893  1.00  0.00     0.000 A 
HETATM    5  C   LIG     1      16.013  31.616  13.526  1.00  0.00     0.001 A 
HETATM    6  C   LIG     1      15.051  31.139  14.421  1.00  0.00     0.015 A 
ENDROOT
BRANCH   1   7
HETATM    7  C   LIG     1      13.902  31.219  16.671  1.00  0.00     0.155 C 
HETATM    8  C   LIG     1      12.667  30.497  16.223  1.00  0.00     0.096 C 
HETATM    9  O   LIG     1      14.071  31.408  17.907  1.00  0.00    -0.293 OA
ENDBRANCH   1   7
TORSDOF 1
ENDMDL
MODEL 17
REMARK VINA RESULT:      -4.7      2.152      4.183
REMARK  1 active torsions:
REMARK  status: ('A' for Active; 'I' for Inactive)
REMARK    1  A    between atoms: C_2  and  C_3 
ROOT
HETATM    1  C   LIG     1      17.326  35.737  24.641  1.00  0.00     0.009 A 
HETATM    2  C   LIG     1      17.106  35.078  23.414  1.00  0.00     0.015 A 
HETATM    3  C   LIG     1      16.816  35.807  22.257  1.00  0.00     0.001 A 
HETATM    4  C   LIG     1      16.741  37.201  22.307  1.00  0.00     0.000 A 
HETATM    5  C   LIG     1      16.957  37.868  23.515  1.00  0.00     0.001 A 
HETATM    6  C   LIG     1      17.248  37.144  24.675  1.00  0.00     0.015 A 
ENDROOT
BRANCH   1   7
HETATM    7  C   LIG     1      17.635  34.948  25.864  1.00  0.00     0.155 C 
HETATM    8  C   LIG     1      16.555  34.371  26.728  1.00  0.00     0.096 C 
HETATM    9  O   LIG     1      18.837  34.752  26.196  1.00  0.00    -0.293 OA
ENDBRANCH   1   7
TORSDOF 1
ENDMDL
MODEL 18
REMARK VINA RESULT:      -4.6      8.124      9.090
REMARK  1 active torsions:
REMARK  status: ('A' for Active; 'I' for Inactive)
REMARK    1  A    between atoms: C_2  and  C_3 
ROOT
HETATM    1  C   LIG     1      14.374  32.060  17.511  1.00  0.00     0.009 A 
HETATM    2  C   LIG     1      14.707  33.361  17.083  1.00  0.00     0.015 A 
HETATM    3  C   LIG     1      15.292  34.274  17.966  1.00  0.00     0.001 A 
HETATM    4  C   LIG     1      15.554  33.902  19.286  1.00  0.00     0.000 A 
HETATM    5  C   LIG     1      15.231  32.617  19.725  1.00  0.00     0.001 A 
HETATM    6  C   LIG     1      14.646  31.700  18.847  1.00  0.00     0.015 A 
ENDROOT
BRANCH   1   7
HETATM    7  C   LIG     1      13.752  31.100  16.560  1.00  0.00     0.155 C 
HETATM    8  C   LIG     1      14.415  30.721  15.270  1.00  0.00     0.096 C 
HETATM    9  O   LIG     1      12.635  30.582  16.835  1.00  0.00    -0.293 OA
ENDBRANCH   1   7
TORSDOF 1
ENDMDL
