MODEL 1
REMARK VINA RESULT:      -6.8      0.000      0.000
REMARK  1 active torsions:
REMARK  status: ('A' for Active; 'I' for Inactive)
REMARK    1  A    between atoms: C_2  and  C_4 
ROOT
HETATM    1  C   LIG     1      17.317  36.386  24.247  1.00  0.00    -0.055 A 
HETATM    2  C   LIG     1      17.266  35.083  24.781  1.00  0.00     0.007 A 
HETATM    3  C   LIG     1      17.823  34.809  26.034  1.00  0.00     0.001 A 
HETATM    4  C   LIG     1      18.437  35.828  26.766  1.00  0.00     0.000 A 
HETATM    5  C   LIG     1      18.494  37.123  26.248  1.00  0.00     0.001 A 
HETATM    6  C   LIG     1      17.938  37.403  24.995  1.00  0.00     0.007 A 
ENDROOT
BRANCH   1   7
HETATM    7  C   LIG     1      16.718  36.701  22.890  1.00  0.00     0.010 C 
HETATM    8  C   LIG     1      16.985  35.568  21.892  1.00  0.00     0.015 C 
HETATM    9  C   LIG     1      17.237  38.040  22.354  1.00  0.00     0.015 C 
ENDBRANCH   1   7
TORSDOF 1
ENDMDL
MODEL 2
REMARK VINA RESULT:      -6.8      0.592      2.074
REMARK  1 active torsions:
REMARK  status: ('A' for Active; 'I' for Inactive)
REMARK    1  A    between atoms: C_2  and  C_4 
ROOT
HETATM    1  C   LIG     1      17.316  36.344  24.159  1.00  0.00    -0.055 A 
HETATM    2  C   LIG     1      17.840  37.406  24.922  1.00  0.00     0.007 A 
HETATM    3  C   LIG     1      18.307  37.182  26.221  1.00  0.00     0.001 A 
HETATM    4  C   LIG     1      18.256  35.900  26.773  1.00  0.00     0.000 A 
HETATM    5  C   LIG     1      17.740  34.839  26.027  1.00  0.00     0.001 A 
HETATM    6  C   LIG     1      17.271  35.057  24.727  1.00  0.00     0.007 A 
ENDROOT
BRANCH   1   7
HETATM    7  C   LIG     1      16.805  36.569  22.749  1.00  0.00     0.010 C 
HETATM    8  C   LIG     1      15.647  37.573  22.735  1.00  0.00     0.015 C 
HETATM    9  C   LIG     1      16.394  35.245  22.093  1.00  0.00     0.015 C 
ENDBRANCH   1   7
TORSDOF 1
ENDMDL
MODEL 3
REMARK VINA RESULT:      -6.5      2.370      4.853
REMARK  1 active torsions:
REMARK  status: ('A' for Active; 'I' for Inactive)
REMARK    1  A    between atoms: C_2  and  C_4 
ROOT
HETATM    1  C   LIG     1      17.700  37.413  21.330  1.00  0.00    -0.055 A 
HETATM    2  C   LIG     1      18.293  36.683  20.281  1.00  0.00     0.007 A 
HETATM    3  C   LIG     1      19.204  37.298  19.417  1.00  0.00     0.001 A 
HETATM    4  C   LIG     1      19.533  38.644  19.588  1.00  0.00     0.000 A 
HETATM    5  C   LIG     1      18.953  39.379  20.624  1.00  0.00     0.001 A 
HETATM    6  C   LIG     1      18.039  38.769  21.492  1.00  0.00     0.007 A 
ENDROOT
BRANCH   1   7
HETATM    7  C   LIG     1      16.709  36.762  22.276  1.00  0.00     0.010 C 
HETATM    8  C   LIG     1      16.796  37.378  23.677  1.00  0.00     0.015 C 
HETATM    9  C   LIG     1      16.912  35.243  22.329  1.00  0.00     0.015 C 
ENDBRANCH   1   7
TORSDOF 1
ENDMDL
MODEL 4
REMARK VINA RESULT:      -6.4      0.916      3.800
REMARK  1 active torsions:
REMARK  status: ('A' for Active; 'I' for Inactive)
REMARK    1  A    between atoms: C_2  and  C_4 
ROOT
HETATM    1  C   LIG     1      17.264  36.268  24.108  1.00  0.00    -0.055 A 
HETATM    2  C   LIG     1      17.079  35.099  23.343  1.00  0.00     0.007 A 
HETATM    3  C   LIG     1      16.905  35.179  21.958  1.00  0.00     0.001 A 
HETATM    4  C   LIG     1      16.912  36.421  21.321  1.00  0.00     0.000 A 
HETATM    5  C   LIG     1      17.096  37.588  22.067  1.00  0.00     0.001 A 
HETATM    6  C   LIG     1      17.270  37.514  23.454  1.00  0.00     0.007 A 
ENDROOT
BRANCH   1   7
HETATM    7  C   LIG     1      17.454  36.200  25.611  1.00  0.00     0.010 C 
HETATM    8  C   LIG     1      18.628  37.078  26.059  1.00  0.00     0.015 C 
HETATM    9  C   LIG     1      17.639  34.752  26.079  1.00  0.00     0.015 C 
ENDBRANCH   1   7
TORSDOF 1
ENDMDL
MODEL 5
REMARK VINA RESULT:      -6.0      2.668      3.783
REMARK  1 active torsions:
REMARK  status: ('A' for Active; 'I' for Inactive)
REMARK    1  A    between atoms: C_2  and  C_4 
ROOT
HETATM    1  C   LIG     1      18.013  37.851  21.104  1.00  0.00    -0.055 A 
HETATM    2  C   LIG     1      17.306  36.661  21.370  1.00  0.00     0.007 A 
HETATM    3  C   LIG     1      16.547  36.534  22.538  1.00  0.00     0.001 A 
HETATM    4  C   LIG     1      16.485  37.588  23.452  1.00  0.00     0.000 A 
HETATM    5  C   LIG     1      17.181  38.773  23.200  1.00  0.00     0.001 A 
HETATM    6  C   LIG     1      17.942  38.906  22.033  1.00  0.00     0.007 A 
ENDROOT
BRANCH   1   7
HETATM    7  C   LIG     1      18.840  38.006  19.843  1.00  0.00     0.010 C 
HETATM    8  C   LIG     1      19.473  36.672  19.431  1.00  0.00     0.015 C 
HETATM    9  C   LIG     1      19.908  39.092  20.013  1.00  0.00     0.015 C 
ENDBRANCH   1   7
TORSDOF 1
ENDMDL
MODEL 6
REMARK VINA RESULT:      -6.0      3.055      4.958
REMARK  1 active torsions:
REMARK  status: ('A' for Active; 'I' for Inactive)
REMARK    1  A    between atoms: C_2  and  C_4 
ROOT
HETATM    1  C   LIG     1      17.830  36.525  20.601  1.00  0.00    -0.055 A 
HETATM    2  C   LIG     1      18.618  36.607  19.435  1.00  0.00     0.007 A 
HETATM    3  C   LIG     1      19.326  37.777  19.140  1.00  0.00     0.001 A 
HETATM    4  C   LIG     1      19.256  38.875  20.001  1.00  0.00     0.000 A 
HETATM    5  C   LIG     1      18.479  38.805  21.160  1.00  0.00     0.001 A 
HETATM    6  C   LIG     1      17.768  37.638  21.460  1.00  0.00     0.007 A 
ENDROOT
BRANCH   1   7
HETATM    7  C   LIG     1      17.056  35.264  20.936  1.00  0.00     0.010 C 
HETATM    8  C   LIG     1      15.670  35.278  20.282  1.00  0.00     0.015 C 
HETATM    9  C   LIG     1      16.948  35.069  22.452  1.00  0.00     0.015 C 
ENDBRANCH   1   7
TORSDOF 1
ENDMDL
MODEL 7
REMARK VINA RESULT:      -5.6      7.893     10.845
REMARK  1 active torsions:
REMARK  status: ('A' for Active; 'I' for Inactive)
REMARK    1  A    between atoms: C_2  and  C_4 
ROOT
HETATM    1  C   LIG     1      14.418  31.749  16.182  1.00  0.00    -0.055 A 
HETATM    2  C   LIG     1      15.484  31.741  15.261  1.00  0.00     0.007 A 
HETATM    3  C   LIG     1      15.514  30.807  14.221  1.00  0.00     0.001 A 
HETATM    4  C   LIG     1      14.485  29.871  14.089  1.00  0.00     0.000 A 
HETATM    5  C   LIG     1      13.423  29.869  14.996  1.00  0.00     0.001 A 
HETATM    6  C   LIG     1      13.388  30.801  16.039  1.00  0.00     0.007 A 
ENDROOT
BRANCH   1   7
HETATM    7  C   LIG     1      14.370  32.756  17.316  1.00  0.00     0.010 C 
HETATM    8  C   LIG     1      15.078  34.058  16.928  1.00  0.00     0.015 C 
HETATM    9  C   LIG     1      14.964  32.168  18.602  1.00  0.00     0.015 C 
ENDBRANCH   1   7
TORSDOF 1
ENDMDL
MODEL 8
REMARK VINA RESULT:      -5.6      7.906     10.777
REMARK  1 active torsions:
REMARK  status: ('A' for Active; 'I' for Inactive)
REMARK    1  A    between atoms: C_2  and  C_4 
ROOT
HETATM    1  C   LIG     1      14.387  31.722  16.204  1.00  0.00    -0.055 A 
HETATM    2  C   LIG     1      13.361  30.773  16.031  1.00  0.00     0.007 A 
HETATM    3  C   LIG     1      13.415  29.854  14.979  1.00  0.00     0.001 A 
HETATM    4  C   LIG     1      14.490  29.872  14.087  1.00  0.00     0.000 A 
HETATM    5  C   LIG     1      15.514  30.808  14.247  1.00  0.00     0.001 A 
HETATM    6  C   LIG     1      15.465  31.730  15.299  1.00  0.00     0.007 A 
ENDROOT
BRANCH   1   7
HETATM    7  C   LIG     1      14.344  32.726  17.340  1.00  0.00     0.010 C 
HETATM    8  C   LIG     1      15.071  34.021  16.960  1.00  0.00     0.015 C 
HETATM    9  C   LIG     1      14.921  32.128  18.628  1.00  0.00     0.015 C 
ENDBRANCH   1   7
TORSDOF 1
ENDMDL
MODEL 9
REMARK VINA RESULT:      -5.4      8.819     11.137
REMARK  1 active torsions:
REMARK  status: ('A' for Active; 'I' for Inactive)
REMARK    1  A    between atoms: C_2  and  C_4 
ROOT
HETATM    1  C   LIG     1      14.481  30.808  15.159  1.00  0.00    -0.055 A 
HETATM    2  C   LIG     1      13.602  30.880  16.257  1.00  0.00     0.007 A 
HETATM    3  C   LIG     1      13.789  31.845  17.251  1.00  0.00     0.001 A 
HETATM    4  C   LIG     1      14.853  32.746  17.164  1.00  0.00     0.000 A 
HETATM    5  C   LIG     1      15.732  32.684  16.080  1.00  0.00     0.001 A 
HETATM    6  C   LIG     1      15.550  31.721  15.082  1.00  0.00     0.007 A 
ENDROOT
BRANCH   1   7
HETATM    7  C   LIG     1      14.293  29.767  14.071  1.00  0.00     0.010 C 
HETATM    8  C   LIG     1      12.980  29.001  14.261  1.00  0.00     0.015 C 
HETATM    9  C   LIG     1      15.487  28.808  14.012  1.00  0.00     0.015 C 
ENDBRANCH   1   7
TORSDOF 1
ENDMDL
MODEL 10
REMARK VINA RESULT:      -5.4      8.833     11.209
REMARK  1 active torsions:
REMARK  status: ('A' for Active; 'I' for Inactive)
REMARK    1  A    between atoms: C_2  and  C_4 
ROOT
HETATM    1  C   LIG     1      14.513  30.804  15.135  1.00  0.00    -0.055 A 
HETATM    2  C   LIG     1      15.580  31.722  15.070  1.00  0.00     0.007 A 
HETATM    3  C   LIG     1      15.750  32.681  16.073  1.00  0.00     0.001 A 
HETATM    4  C   LIG     1      14.861  32.737  17.149  1.00  0.00     0.000 A 
HETATM    5  C   LIG     1      13.801  31.832  17.225  1.00  0.00     0.001 A 
HETATM    6  C   LIG     1      13.624  30.870  16.224  1.00  0.00     0.007 A 
ENDROOT
BRANCH   1   7
HETATM    7  C   LIG     1      14.313  29.757  14.056  1.00  0.00     0.010 C 
HETATM    8  C   LIG     1      12.991  29.006  14.254  1.00  0.00     0.015 C 
HETATM    9  C   LIG     1      15.496  28.784  14.004  1.00  0.00     0.015 C 
ENDBRANCH   1   7
TORSDOF 1
ENDMDL
MODEL 11
REMARK VINA RESULT:      -5.4      8.729     11.154
REMARK  1 active torsions:
REMARK  status: ('A' for Active; 'I' for Inactive)
REMARK    1  A    between atoms: C_2  and  C_4 
ROOT
HETATM    1  C   LIG     1      15.053  31.597  15.584  1.00  0.00    -0.055 A 
HETATM    2  C   LIG     1      13.793  31.349  16.163  1.00  0.00     0.007 A 
HETATM    3  C   LIG     1      12.964  30.346  15.652  1.00  0.00     0.001 A 
HETATM    4  C   LIG     1      13.380  29.581  14.559  1.00  0.00     0.000 A 
HETATM    5  C   LIG     1      14.627  29.818  13.977  1.00  0.00     0.001 A 
HETATM    6  C   LIG     1      15.461  30.821  14.484  1.00  0.00     0.007 A 
ENDROOT
BRANCH   1   7
HETATM    7  C   LIG     1      15.965  32.682  16.126  1.00  0.00     0.010 C 
HETATM    8  C   LIG     1      15.154  33.836  16.726  1.00  0.00     0.015 C 
HETATM    9  C   LIG     1      16.925  33.188  15.044  1.00  0.00     0.015 C 
ENDBRANCH   1   7
TORSDOF 1
ENDMDL
MODEL 12
REMARK VINA RESULT:      -5.2      8.471     11.026
REMARK  1 active torsions:
REMARK  status: ('A' for Active; 'I' for Inactive)
REMARK    1  A    between atoms: C_2  and  C_4 
ROOT
HETATM    1  C   LIG     1      14.698  31.399  15.734  1.00  0.00    -0.055 A 
HETATM    2  C   LIG     1      14.534  30.501  14.661  1.00  0.00     0.007 A 
HETATM    3  C   LIG     1      15.294  30.643  13.496  1.00  0.00     0.001 A 
HETATM    4  C   LIG     1      16.222  31.681  13.387  1.00  0.00     0.000 A 
HETATM    5  C   LIG     1      16.394  32.578  14.443  1.00  0.00     0.001 A 
HETATM    6  C   LIG     1      15.637  32.440  15.612  1.00  0.00     0.007 A 
ENDROOT
BRANCH   1   7
HETATM    7  C   LIG     1      13.882  31.259  17.005  1.00  0.00     0.010 C 
HETATM    8  C   LIG     1      12.446  31.753  16.796  1.00  0.00     0.015 C 
HETATM    9  C   LIG     1      14.551  31.991  18.174  1.00  0.00     0.015 C 
ENDBRANCH   1   7
TORSDOF 1
ENDMDL
MODEL 13
REMARK VINA RESULT:      -4.9      9.559     11.625
REMARK  1 active torsions:
REMARK  status: ('A' for Active; 'I' for Inactive)
REMARK    1  A    between atoms: C_2  and  C_4 
ROOT
HETATM    1  C   LIG     1      15.366  31.278  14.297  1.00  0.00    -0.055 A 
HETATM    2  C   LIG     1      16.186  31.850  13.304  1.00  0.00     0.007 A 
HETATM    3  C   LIG     1      16.991  32.954  13.599  1.00  0.00     0.001 A 
HETATM    4  C   LIG     1      16.987  33.500  14.885  1.00  0.00     0.000 A 
HETATM    5  C   LIG     1      16.180  32.942  15.878  1.00  0.00     0.001 A 
HETATM    6  C   LIG     1      15.371  31.838  15.588  1.00  0.00     0.007 A 
ENDROOT
BRANCH   1   7
HETATM    7  C   LIG     1      14.486  30.080  13.993  1.00  0.00     0.010 C 
HETATM    8  C   LIG     1      13.347  29.960  15.012  1.00  0.00     0.015 C 
HETATM    9  C   LIG     1      15.312  28.790  13.935  1.00  0.00     0.015 C 
ENDBRANCH   1   7
TORSDOF 1
ENDMDL
MODEL 14
REMARK VINA RESULT:      -4.8     10.208     12.803
REMARK  1 active torsions:
REMARK  status: ('A' for Active; 'I' for Inactive)
REMARK    1  A    between atoms: C_2  and  C_4 
ROOT
HETATM    1  C   LIG     1      14.261  29.895  14.624  1.00  0.00    -0.055 A 
HETATM    2  C   LIG     1      13.031  29.234  14.434  1.00  0.00     0.007 A 
HETATM    3  C   LIG     1      12.992  27.969  13.839  1.00  0.00     0.001 A 
HETATM    4  C   LIG     1      14.175  27.350  13.428  1.00  0.00     0.000 A 
HETATM    5  C   LIG     1      15.400  27.994  13.612  1.00  0.00     0.001 A 
HETATM    6  C   LIG     1      15.445  29.261  14.206  1.00  0.00     0.007 A 
ENDROOT
BRANCH   1   7
HETATM    7  C   LIG     1      14.321  31.267  15.267  1.00  0.00     0.010 C 
HETATM    8  C   LIG     1      15.731  31.861  15.168  1.00  0.00     0.015 C 
HETATM    9  C   LIG     1      13.846  31.216  16.723  1.00  0.00     0.015 C 
ENDBRANCH   1   7
TORSDOF 1
ENDMDL
MODEL 15
REMARK VINA RESULT:      -4.7      5.616      7.826
REMARK  1 active torsions:
REMARK  status: ('A' for Active; 'I' for Inactive)
REMARK    1  A    between atoms: C_2  and  C_4 
ROOT
HETATM    1  C   LIG     1      14.951  32.904  17.721  1.00  0.00    -0.055 A 
HETATM    2  C   LIG     1      14.952  32.051  18.843  1.00  0.00     0.007 A 
HETATM    3  C   LIG     1      15.275  32.547  20.109  1.00  0.00     0.001 A 
HETATM    4  C   LIG     1      15.601  33.895  20.272  1.00  0.00     0.000 A 
HETATM    5  C   LIG     1      15.603  34.751  19.168  1.00  0.00     0.001 A 
HETATM    6  C   LIG     1      15.281  34.260  17.898  1.00  0.00     0.007 A 
ENDROOT
BRANCH   1   7
HETATM    7  C   LIG     1      14.603  32.382  16.340  1.00  0.00     0.010 C 
HETATM    8  C   LIG     1      13.841  31.055  16.427  1.00  0.00     0.015 C 
HETATM    9  C   LIG     1      15.858  32.242  15.471  1.00  0.00     0.015 C 
ENDBRANCH   1   7
TORSDOF 1
ENDMDL
