REMARK  1 active torsions:
REMARK  status: ('A' for Active; 'I' for Inactive)
REMARK    1  A    between atoms: C_2  and  C_4 
ROOT
HETATM    1  C   LIG     1       0.174   0.205  -0.063  1.00  0.00    -0.055 A 
HETATM    2  C   LIG     1       0.659  -1.089   0.212  1.00  0.00     0.007 A 
HETATM    3  C   LIG     1       2.031  -1.355   0.169  1.00  0.00     0.001 A 
HETATM    4  C   LIG     1       2.933  -0.337  -0.149  1.00  0.00     0.000 A 
HETATM    5  C   LIG     1       2.465   0.950  -0.423  1.00  0.00     0.001 A 
HETATM    6  C   LIG     1       1.093   1.222  -0.382  1.00  0.00     0.007 A 
ENDROOT
BRANCH   1   7
HETATM    7  C   LIG     1      -1.311   0.511  -0.021  1.00  0.00     0.010 C 
HETATM    8  C   LIG     1      -1.882   0.283   1.383  1.00  0.00     0.015 C 
HETATM    9  C   LIG     1      -2.074  -0.311  -1.066  1.00  0.00     0.015 C 
ENDBRANCH   1   7
TORSDOF 1
