REMARK  1 active torsions:
REMARK  status: ('A' for Active; 'I' for Inactive)
REMARK    1  A    between atoms: C_2  and  C_3 
ROOT
HETATM    1  C   LIG     1      -0.217  -0.325  -0.034  1.00  0.00     0.009 A 
HETATM    2  C   LIG     1       0.727  -1.355  -0.219  1.00  0.00     0.015 A 
HETATM    3  C   LIG     1       2.097  -1.087  -0.143  1.00  0.00     0.001 A 
HETATM    4  C   LIG     1       2.544   0.210   0.118  1.00  0.00     0.000 A 
HETATM    5  C   LIG     1       1.621   1.241   0.304  1.00  0.00     0.001 A 
HETATM    6  C   LIG     1       0.250   0.979   0.230  1.00  0.00     0.015 A 
ENDROOT
BRANCH   1   7
HETATM    7  C   LIG     1      -1.672  -0.625  -0.117  1.00  0.00     0.155 C 
HETATM    8  C   LIG     1      -2.712   0.438   0.074  1.00  0.00     0.096 C 
HETATM    9  O   LIG     1      -2.056  -1.803  -0.354  1.00  0.00    -0.293 OA
ENDBRANCH   1   7
TORSDOF 1
