REMARK  2 active torsions:
REMARK  status: ('A' for Active; 'I' for Inactive)
REMARK    1  A    between atoms: C_2  and  C_3 
REMARK    2  A    between atoms: C_2  and  O_9 
ROOT
HETATM    1  C   LIG     1       0.907   0.209  -0.531  1.00  0.00     0.084 C 
HETATM    2  C   LIG     1       0.307  -1.202  -0.381  1.00  0.00     0.015 C 
HETATM    3  C   LIG     1      -1.213  -1.173  -0.585  1.00  0.00     0.001 C 
HETATM    4  C   LIG     1      -1.881  -0.187   0.382  1.00  0.00     0.000 C 
HETATM    5  C   LIG     1      -1.285   1.218   0.235  1.00  0.00     0.001 C 
HETATM    6  C   LIG     1       0.235   1.197   0.442  1.00  0.00     0.015 C 
ENDROOT
BRANCH   1   7
HETATM    7  C   LIG     1       2.400   0.182  -0.322  1.00  0.00     0.143 C 
HETATM    8  O   LIG     1       3.166   0.527  -1.260  1.00  0.00    -0.650 OA
BRANCH   7   9
HETATM    9  O   LIG     1       2.955  -0.218   0.892  1.00  0.00    -0.776 OA
HETATM   10  H   LIG     1       2.379  -0.503   1.675  1.00  0.00     0.167 HD
ENDBRANCH   7   9
ENDBRANCH   1   7
TORSDOF 2
