REMARK  2 active torsions:
REMARK  status: ('A' for Active; 'I' for Inactive)
REMARK    1  A    between atoms: C_2  and  C_3 
REMARK    2  A    between atoms: C_2  and  O_9 
ROOT
HETATM    1  C   LIG     1      -0.083  -0.113   0.195  1.00  0.00    -0.030 A 
HETATM    2  C   LIG     1       0.625   1.074  -0.072  1.00  0.00     0.010 A 
HETATM    3  C   LIG     1       2.002   1.037  -0.309  1.00  0.00     0.001 A 
HETATM    4  C   LIG     1       2.686  -0.182  -0.281  1.00  0.00     0.000 A 
HETATM    5  C   LIG     1       1.993  -1.365  -0.013  1.00  0.00     0.001 A 
HETATM    6  C   LIG     1       0.615  -1.333   0.226  1.00  0.00     0.010 A 
ENDROOT
BRANCH   1   7
HETATM    7  C   LIG     1      -1.573  -0.080   0.458  1.00  0.00     0.147 C 
HETATM    8  C   LIG     1      -2.336   0.333  -0.801  1.00  0.00     0.044 C 
BRANCH   7   9
HETATM    9  O   LIG     1      -1.862   0.823   1.493  1.00  0.00    -0.391 OA
HETATM   10  H   LIG     1      -1.552   0.398   2.336  1.00  0.00     0.210 HD
ENDBRANCH   7   9
ENDBRANCH   1   7
TORSDOF 2
