MODEL 1
REMARK VINA RESULT:      -6.9      0.000      0.000
REMARK  2 active torsions:
REMARK  status: ('A' for Active; 'I' for Inactive)
REMARK    1  A    between atoms: C_2  and  C_3 
REMARK    2  A    between atoms: C_2  and  O_9 
ROOT
HETATM    1  C   LIG     1      17.120  36.837  24.341  1.00  0.00    -0.030 A 
HETATM    2  C   LIG     1      17.776  37.576  25.344  1.00  0.00     0.010 A 
HETATM    3  C   LIG     1      18.390  36.922  26.416  1.00  0.00     0.001 A 
HETATM    4  C   LIG     1      18.354  35.527  26.500  1.00  0.00     0.000 A 
HETATM    5  C   LIG     1      17.702  34.785  25.513  1.00  0.00     0.001 A 
HETATM    6  C   LIG     1      17.085  35.435  24.438  1.00  0.00     0.010 A 
ENDROOT
BRANCH   1   7
HETATM    7  C   LIG     1      16.449  37.538  23.180  1.00  0.00     0.147 C 
HETATM    8  C   LIG     1      17.348  38.641  22.620  1.00  0.00     0.044 C 
BRANCH   7   9
HETATM    9  O   LIG     1      15.230  38.098  23.592  1.00  0.00    -0.391 OA
HETATM   10  H   LIG     1      14.681  38.219  22.772  1.00  0.00     0.210 HD
ENDBRANCH   7   9
ENDBRANCH   1   7
TORSDOF 2
ENDMDL
MODEL 2
REMARK VINA RESULT:      -6.9      0.010      1.615
REMARK  2 active torsions:
REMARK  status: ('A' for Active; 'I' for Inactive)
REMARK    1  A    between atoms: C_2  and  C_3 
REMARK    2  A    between atoms: C_2  and  O_9 
ROOT
HETATM    1  C   LIG     1      17.109  36.829  24.347  1.00  0.00    -0.030 A 
HETATM    2  C   LIG     1      17.077  35.426  24.446  1.00  0.00     0.010 A 
HETATM    3  C   LIG     1      17.694  34.779  25.520  1.00  0.00     0.001 A 
HETATM    4  C   LIG     1      18.351  35.524  26.504  1.00  0.00     0.000 A 
HETATM    5  C   LIG     1      18.392  36.918  26.412  1.00  0.00     0.001 A 
HETATM    6  C   LIG     1      17.776  37.570  25.338  1.00  0.00     0.010 A 
ENDROOT
BRANCH   1   7
HETATM    7  C   LIG     1      16.447  37.536  23.184  1.00  0.00     0.147 C 
HETATM    8  C   LIG     1      17.356  38.634  22.629  1.00  0.00     0.044 C 
BRANCH   7   9
HETATM    9  O   LIG     1      15.230  38.103  23.591  1.00  0.00    -0.391 OA
HETATM   10  H   LIG     1      15.165  38.989  23.145  1.00  0.00     0.210 HD
ENDBRANCH   7   9
ENDBRANCH   1   7
TORSDOF 2
ENDMDL
MODEL 3
REMARK VINA RESULT:      -6.2      2.113      4.323
REMARK  2 active torsions:
REMARK  status: ('A' for Active; 'I' for Inactive)
REMARK    1  A    between atoms: C_2  and  C_3 
REMARK    2  A    between atoms: C_2  and  O_9 
ROOT
HETATM    1  C   LIG     1      17.530  38.150  22.016  1.00  0.00    -0.030 A 
HETATM    2  C   LIG     1      18.364  39.178  21.536  1.00  0.00     0.010 A 
HETATM    3  C   LIG     1      19.135  38.983  20.387  1.00  0.00     0.001 A 
HETATM    4  C   LIG     1      19.084  37.762  19.707  1.00  0.00     0.000 A 
HETATM    5  C   LIG     1      18.263  36.735  20.178  1.00  0.00     0.001 A 
HETATM    6  C   LIG     1      17.490  36.925  21.328  1.00  0.00     0.010 A 
ENDROOT
BRANCH   1   7
HETATM    7  C   LIG     1      16.697  38.352  23.263  1.00  0.00     0.147 C 
HETATM    8  C   LIG     1      17.022  37.287  24.310  1.00  0.00     0.044 C 
BRANCH   7   9
HETATM    9  O   LIG     1      15.330  38.291  22.947  1.00  0.00    -0.391 OA
HETATM   10  H   LIG     1      15.009  37.400  23.248  1.00  0.00     0.210 HD
ENDBRANCH   7   9
ENDBRANCH   1   7
TORSDOF 2
ENDMDL
MODEL 4
REMARK VINA RESULT:      -6.1      3.394      5.013
REMARK  2 active torsions:
REMARK  status: ('A' for Active; 'I' for Inactive)
REMARK    1  A    between atoms: C_2  and  C_3 
REMARK    2  A    between atoms: C_2  and  O_9 
ROOT
HETATM    1  C   LIG     1      17.681  37.077  20.868  1.00  0.00    -0.030 A 
HETATM    2  C   LIG     1      17.687  38.291  21.580  1.00  0.00     0.010 A 
HETATM    3  C   LIG     1      18.637  39.274  21.292  1.00  0.00     0.001 A 
HETATM    4  C   LIG     1      19.590  39.057  20.292  1.00  0.00     0.000 A 
HETATM    5  C   LIG     1      19.595  37.854  19.582  1.00  0.00     0.001 A 
HETATM    6  C   LIG     1      18.647  36.866  19.868  1.00  0.00     0.010 A 
ENDROOT
BRANCH   1   7
HETATM    7  C   LIG     1      16.659  36.005  21.178  1.00  0.00     0.147 C 
HETATM    8  C   LIG     1      17.083  35.190  22.400  1.00  0.00     0.044 C 
BRANCH   7   9
HETATM    9  O   LIG     1      16.507  35.147  20.077  1.00  0.00    -0.391 OA
HETATM   10  H   LIG     1      17.325  34.583  20.042  1.00  0.00     0.210 HD
ENDBRANCH   7   9
ENDBRANCH   1   7
TORSDOF 2
ENDMDL
MODEL 5
REMARK VINA RESULT:      -6.0      3.097      4.760
REMARK  2 active torsions:
REMARK  status: ('A' for Active; 'I' for Inactive)
REMARK    1  A    between atoms: C_2  and  C_3 
REMARK    2  A    between atoms: C_2  and  O_9 
ROOT
HETATM    1  C   LIG     1      17.294  37.499  21.567  1.00  0.00    -0.030 A 
HETATM    2  C   LIG     1      17.860  36.644  20.602  1.00  0.00     0.010 A 
HETATM    3  C   LIG     1      18.901  37.094  19.784  1.00  0.00     0.001 A 
HETATM    4  C   LIG     1      19.385  38.398  19.918  1.00  0.00     0.000 A 
HETATM    5  C   LIG     1      18.828  39.255  20.871  1.00  0.00     0.001 A 
HETATM    6  C   LIG     1      17.786  38.810  21.691  1.00  0.00     0.010 A 
ENDROOT
BRANCH   1   7
HETATM    7  C   LIG     1      16.164  37.021  22.453  1.00  0.00     0.147 C 
HETATM    8  C   LIG     1      15.247  36.064  21.691  1.00  0.00     0.044 C 
BRANCH   7   9
HETATM    9  O   LIG     1      15.414  38.114  22.913  1.00  0.00    -0.391 OA
HETATM   10  H   LIG     1      14.990  37.830  23.765  1.00  0.00     0.210 HD
ENDBRANCH   7   9
ENDBRANCH   1   7
TORSDOF 2
ENDMDL
MODEL 6
REMARK VINA RESULT:      -5.8      1.801      2.079
REMARK  2 active torsions:
REMARK  status: ('A' for Active; 'I' for Inactive)
REMARK    1  A    between atoms: C_2  and  C_3 
REMARK    2  A    between atoms: C_2  and  O_9 
ROOT
HETATM    1  C   LIG     1      17.078  36.291  23.438  1.00  0.00    -0.030 A 
HETATM    2  C   LIG     1      17.449  37.465  24.120  1.00  0.00     0.010 A 
HETATM    3  C   LIG     1      17.893  37.404  25.444  1.00  0.00     0.001 A 
HETATM    4  C   LIG     1      17.970  36.172  26.101  1.00  0.00     0.000 A 
HETATM    5  C   LIG     1      17.600  35.001  25.435  1.00  0.00     0.001 A 
HETATM    6  C   LIG     1      17.154  35.058  24.110  1.00  0.00     0.010 A 
ENDROOT
BRANCH   1   7
HETATM    7  C   LIG     1      16.592  36.350  22.006  1.00  0.00     0.147 C 
HETATM    8  C   LIG     1      15.696  35.153  21.688  1.00  0.00     0.044 C 
BRANCH   7   9
HETATM    9  O   LIG     1      17.684  36.361  21.124  1.00  0.00    -0.391 OA
HETATM   10  H   LIG     1      18.452  36.741  21.627  1.00  0.00     0.210 HD
ENDBRANCH   7   9
ENDBRANCH   1   7
TORSDOF 2
ENDMDL
MODEL 7
REMARK VINA RESULT:      -5.7      3.513      4.645
REMARK  2 active torsions:
REMARK  status: ('A' for Active; 'I' for Inactive)
REMARK    1  A    between atoms: C_2  and  C_3 
REMARK    2  A    between atoms: C_2  and  O_9 
ROOT
HETATM    1  C   LIG     1      18.024  37.383  20.818  1.00  0.00    -0.030 A 
HETATM    2  C   LIG     1      17.202  36.337  21.279  1.00  0.00     0.010 A 
HETATM    3  C   LIG     1      16.305  36.554  22.329  1.00  0.00     0.001 A 
HETATM    4  C   LIG     1      16.220  37.814  22.930  1.00  0.00     0.000 A 
HETATM    5  C   LIG     1      17.035  38.857  22.482  1.00  0.00     0.001 A 
HETATM    6  C   LIG     1      17.935  38.644  21.433  1.00  0.00     0.010 A 
ENDROOT
BRANCH   1   7
HETATM    7  C   LIG     1      19.002  37.154  19.686  1.00  0.00     0.147 C 
HETATM    8  C   LIG     1      19.801  38.424  19.395  1.00  0.00     0.044 C 
BRANCH   7   9
HETATM    9  O   LIG     1      18.315  36.762  18.526  1.00  0.00    -0.391 OA
HETATM   10  H   LIG     1      17.613  37.447  18.366  1.00  0.00     0.210 HD
ENDBRANCH   7   9
ENDBRANCH   1   7
TORSDOF 2
ENDMDL
MODEL 8
REMARK VINA RESULT:      -5.7      3.059      4.175
REMARK  2 active torsions:
REMARK  status: ('A' for Active; 'I' for Inactive)
REMARK    1  A    between atoms: C_2  and  C_3 
REMARK    2  A    between atoms: C_2  and  O_9 
ROOT
HETATM    1  C   LIG     1      18.141  37.907  20.912  1.00  0.00    -0.030 A 
HETATM    2  C   LIG     1      17.616  38.249  22.172  1.00  0.00     0.010 A 
HETATM    3  C   LIG     1      16.941  37.295  22.939  1.00  0.00     0.001 A 
HETATM    4  C   LIG     1      16.784  35.992  22.458  1.00  0.00     0.000 A 
HETATM    5  C   LIG     1      17.298  35.644  21.207  1.00  0.00     0.001 A 
HETATM    6  C   LIG     1      17.973  36.595  20.435  1.00  0.00     0.010 A 
ENDROOT
BRANCH   1   7
HETATM    7  C   LIG     1      18.868  38.936  20.074  1.00  0.00     0.147 C 
HETATM    8  C   LIG     1      20.211  38.389  19.589  1.00  0.00     0.044 C 
BRANCH   7   9
HETATM    9  O   LIG     1      19.085  40.104  20.821  1.00  0.00    -0.391 OA
HETATM   10  H   LIG     1      18.598  40.835  20.355  1.00  0.00     0.210 HD
ENDBRANCH   7   9
ENDBRANCH   1   7
TORSDOF 2
ENDMDL
MODEL 9
REMARK VINA RESULT:      -5.7      1.529      3.361
REMARK  2 active torsions:
REMARK  status: ('A' for Active; 'I' for Inactive)
REMARK    1  A    between atoms: C_2  and  C_3 
REMARK    2  A    between atoms: C_2  and  O_9 
ROOT
HETATM    1  C   LIG     1      17.583  37.064  24.081  1.00  0.00    -0.030 A 
HETATM    2  C   LIG     1      17.492  37.866  22.928  1.00  0.00     0.010 A 
HETATM    3  C   LIG     1      17.066  37.315  21.716  1.00  0.00     0.001 A 
HETATM    4  C   LIG     1      16.727  35.961  21.642  1.00  0.00     0.000 A 
HETATM    5  C   LIG     1      16.817  35.156  22.780  1.00  0.00     0.001 A 
HETATM    6  C   LIG     1      17.245  35.702  23.995  1.00  0.00     0.010 A 
ENDROOT
BRANCH   1   7
HETATM    7  C   LIG     1      18.049  37.653  25.395  1.00  0.00     0.147 C 
HETATM    8  C   LIG     1      18.126  36.573  26.475  1.00  0.00     0.044 C 
BRANCH   7   9
HETATM    9  O   LIG     1      17.168  38.663  25.812  1.00  0.00    -0.391 OA
HETATM   10  H   LIG     1      16.544  38.246  26.463  1.00  0.00     0.210 HD
ENDBRANCH   7   9
ENDBRANCH   1   7
TORSDOF 2
ENDMDL
MODEL 10
REMARK VINA RESULT:      -5.7      3.318      4.399
REMARK  2 active torsions:
REMARK  status: ('A' for Active; 'I' for Inactive)
REMARK    1  A    between atoms: C_2  and  C_3 
REMARK    2  A    between atoms: C_2  and  O_9 
ROOT
HETATM    1  C   LIG     1      16.368  36.040  21.549  1.00  0.00    -0.030 A 
HETATM    2  C   LIG     1      16.127  37.112  22.430  1.00  0.00     0.010 A 
HETATM    3  C   LIG     1      16.933  38.252  22.392  1.00  0.00     0.001 A 
HETATM    4  C   LIG     1      17.988  38.335  21.478  1.00  0.00     0.000 A 
HETATM    5  C   LIG     1      18.239  37.276  20.603  1.00  0.00     0.001 A 
HETATM    6  C   LIG     1      17.435  36.131  20.638  1.00  0.00     0.010 A 
ENDROOT
BRANCH   1   7
HETATM    7  C   LIG     1      15.502  34.800  21.588  1.00  0.00     0.147 C 
HETATM    8  C   LIG     1      15.811  33.886  20.402  1.00  0.00     0.044 C 
BRANCH   7   9
HETATM    9  O   LIG     1      14.145  35.156  21.558  1.00  0.00    -0.391 OA
HETATM   10  H   LIG     1      14.028  35.768  20.784  1.00  0.00     0.210 HD
ENDBRANCH   7   9
ENDBRANCH   1   7
TORSDOF 2
ENDMDL
MODEL 11
REMARK VINA RESULT:      -5.5     10.124     11.274
REMARK  2 active torsions:
REMARK  status: ('A' for Active; 'I' for Inactive)
REMARK    1  A    between atoms: C_2  and  C_3 
REMARK    2  A    between atoms: C_2  and  O_9 
ROOT
HETATM    1  C   LIG     1      14.136  31.502  16.000  1.00  0.00    -0.030 A 
HETATM    2  C   LIG     1      13.168  30.522  15.710  1.00  0.00     0.010 A 
HETATM    3  C   LIG     1      13.391  29.589  14.693  1.00  0.00     0.001 A 
HETATM    4  C   LIG     1      14.578  29.624  13.956  1.00  0.00     0.000 A 
HETATM    5  C   LIG     1      15.543  30.595  14.234  1.00  0.00     0.001 A 
HETATM    6  C   LIG     1      15.325  31.532  15.250  1.00  0.00     0.010 A 
ENDROOT
BRANCH   1   7
HETATM    7  C   LIG     1      13.900  32.518  17.096  1.00  0.00     0.147 C 
HETATM    8  C   LIG     1      14.976  33.604  17.068  1.00  0.00     0.044 C 
BRANCH   7   9
HETATM    9  O   LIG     1      13.908  31.889  18.350  1.00  0.00    -0.391 OA
HETATM   10  H   LIG     1      14.381  32.502  18.973  1.00  0.00     0.210 HD
ENDBRANCH   7   9
ENDBRANCH   1   7
TORSDOF 2
ENDMDL
MODEL 12
REMARK VINA RESULT:      -5.5     10.169     11.256
REMARK  2 active torsions:
REMARK  status: ('A' for Active; 'I' for Inactive)
REMARK    1  A    between atoms: C_2  and  C_3 
REMARK    2  A    between atoms: C_2  and  O_9 
ROOT
HETATM    1  C   LIG     1      14.144  31.425  16.009  1.00  0.00    -0.030 A 
HETATM    2  C   LIG     1      15.328  31.501  15.250  1.00  0.00     0.010 A 
HETATM    3  C   LIG     1      15.543  30.619  14.187  1.00  0.00     0.001 A 
HETATM    4  C   LIG     1      14.583  29.654  13.871  1.00  0.00     0.000 A 
HETATM    5  C   LIG     1      13.407  29.568  14.620  1.00  0.00     0.001 A 
HETATM    6  C   LIG     1      13.187  30.447  15.686  1.00  0.00     0.010 A 
ENDROOT
BRANCH   1   7
HETATM    7  C   LIG     1      13.907  32.372  17.165  1.00  0.00     0.147 C 
HETATM    8  C   LIG     1      14.972  33.469  17.193  1.00  0.00     0.044 C 
BRANCH   7   9
HETATM    9  O   LIG     1      13.932  31.669  18.380  1.00  0.00    -0.391 OA
HETATM   10  H   LIG     1      14.508  32.192  18.999  1.00  0.00     0.210 HD
ENDBRANCH   7   9
ENDBRANCH   1   7
TORSDOF 2
ENDMDL
MODEL 13
REMARK VINA RESULT:      -5.3     10.345     11.299
REMARK  2 active torsions:
REMARK  status: ('A' for Active; 'I' for Inactive)
REMARK    1  A    between atoms: C_2  and  C_3 
REMARK    2  A    between atoms: C_2  and  O_9 
ROOT
HETATM    1  C   LIG     1      15.450  31.675  14.865  1.00  0.00    -0.030 A 
HETATM    2  C   LIG     1      15.106  32.270  16.094  1.00  0.00     0.010 A 
HETATM    3  C   LIG     1      14.015  31.796  16.828  1.00  0.00     0.001 A 
HETATM    4  C   LIG     1      13.256  30.727  16.343  1.00  0.00     0.000 A 
HETATM    5  C   LIG     1      13.586  30.132  15.123  1.00  0.00     0.001 A 
HETATM    6  C   LIG     1      14.677  30.604  14.385  1.00  0.00     0.010 A 
ENDROOT
BRANCH   1   7
HETATM    7  C   LIG     1      16.627  32.187  14.063  1.00  0.00     0.147 C 
HETATM    8  C   LIG     1      17.535  33.059  14.930  1.00  0.00     0.044 C 
BRANCH   7   9
HETATM    9  O   LIG     1      16.175  32.935  12.965  1.00  0.00    -0.391 OA
HETATM   10  H   LIG     1      16.282  32.357  12.164  1.00  0.00     0.210 HD
ENDBRANCH   7   9
ENDBRANCH   1   7
TORSDOF 2
ENDMDL
MODEL 14
REMARK VINA RESULT:      -5.3      1.546      2.690
REMARK  2 active torsions:
REMARK  status: ('A' for Active; 'I' for Inactive)
REMARK    1  A    between atoms: C_2  and  C_3 
REMARK    2  A    between atoms: C_2  and  O_9 
ROOT
HETATM    1  C   LIG     1      17.171  37.469  22.689  1.00  0.00    -0.030 A 
HETATM    2  C   LIG     1      16.989  36.323  21.892  1.00  0.00     0.010 A 
HETATM    3  C   LIG     1      16.949  35.055  22.478  1.00  0.00     0.001 A 
HETATM    4  C   LIG     1      17.091  34.916  23.862  1.00  0.00     0.000 A 
HETATM    5  C   LIG     1      17.277  36.047  24.661  1.00  0.00     0.001 A 
HETATM    6  C   LIG     1      17.318  37.319  24.079  1.00  0.00     0.010 A 
ENDROOT
BRANCH   1   7
HETATM    7  C   LIG     1      17.221  38.845  22.061  1.00  0.00     0.147 C 
HETATM    8  C   LIG     1      18.665  39.256  21.772  1.00  0.00     0.044 C 
BRANCH   7   9
HETATM    9  O   LIG     1      16.632  39.789  22.917  1.00  0.00    -0.391 OA
HETATM   10  H   LIG     1      17.082  39.694  23.797  1.00  0.00     0.210 HD
ENDBRANCH   7   9
ENDBRANCH   1   7
TORSDOF 2
ENDMDL
MODEL 15
REMARK VINA RESULT:      -5.3     10.229     11.343
REMARK  2 active torsions:
REMARK  status: ('A' for Active; 'I' for Inactive)
REMARK    1  A    between atoms: C_2  and  C_3 
REMARK    2  A    between atoms: C_2  and  O_9 
ROOT
HETATM    1  C   LIG     1      15.094  31.759  15.515  1.00  0.00    -0.030 A 
HETATM    2  C   LIG     1      15.588  31.012  14.430  1.00  0.00     0.010 A 
HETATM    3  C   LIG     1      14.857  29.933  13.923  1.00  0.00     0.001 A 
HETATM    4  C   LIG     1      13.629  29.589  14.495  1.00  0.00     0.000 A 
HETATM    5  C   LIG     1      13.131  30.321  15.575  1.00  0.00     0.001 A 
HETATM    6  C   LIG     1      13.860  31.401  16.086  1.00  0.00     0.010 A 
ENDROOT
BRANCH   1   7
HETATM    7  C   LIG     1      15.882  32.925  16.072  1.00  0.00     0.147 C 
HETATM    8  C   LIG     1      14.978  33.848  16.890  1.00  0.00     0.044 C 
BRANCH   7   9
HETATM    9  O   LIG     1      16.468  33.656  15.028  1.00  0.00    -0.391 OA
HETATM   10  H   LIG     1      16.429  33.079  14.220  1.00  0.00     0.210 HD
ENDBRANCH   7   9
ENDBRANCH   1   7
TORSDOF 2
ENDMDL
MODEL 16
REMARK VINA RESULT:      -5.2      2.436      3.655
REMARK  2 active torsions:
REMARK  status: ('A' for Active; 'I' for Inactive)
REMARK    1  A    between atoms: C_2  and  C_3 
REMARK    2  A    between atoms: C_2  and  O_9 
ROOT
HETATM    1  C   LIG     1      16.968  36.701  21.964  1.00  0.00    -0.030 A 
HETATM    2  C   LIG     1      16.837  36.128  23.243  1.00  0.00     0.010 A 
HETATM    3  C   LIG     1      17.226  36.842  24.380  1.00  0.00     0.001 A 
HETATM    4  C   LIG     1      17.750  38.132  24.254  1.00  0.00     0.000 A 
HETATM    5  C   LIG     1      17.888  38.708  22.988  1.00  0.00     0.001 A 
HETATM    6  C   LIG     1      17.501  37.997  21.847  1.00  0.00     0.010 A 
ENDROOT
BRANCH   1   7
HETATM    7  C   LIG     1      16.554  35.932  20.728  1.00  0.00     0.147 C 
HETATM    8  C   LIG     1      16.241  34.477  21.076  1.00  0.00     0.044 C 
BRANCH   7   9
HETATM    9  O   LIG     1      17.578  35.971  19.769  1.00  0.00    -0.391 OA
HETATM   10  H   LIG     1      18.404  35.657  20.222  1.00  0.00     0.210 HD
ENDBRANCH   7   9
ENDBRANCH   1   7
TORSDOF 2
ENDMDL
MODEL 17
REMARK VINA RESULT:      -5.1     10.409     11.472
REMARK  2 active torsions:
REMARK  status: ('A' for Active; 'I' for Inactive)
REMARK    1  A    between atoms: C_2  and  C_3 
REMARK    2  A    between atoms: C_2  and  O_9 
ROOT
HETATM    1  C   LIG     1      15.076  31.618  15.344  1.00  0.00    -0.030 A 
HETATM    2  C   LIG     1      13.857  31.327  15.984  1.00  0.00     0.010 A 
HETATM    3  C   LIG     1      13.075  30.250  15.559  1.00  0.00     0.001 A 
HETATM    4  C   LIG     1      13.500  29.453  14.491  1.00  0.00     0.000 A 
HETATM    5  C   LIG     1      14.706  29.736  13.846  1.00  0.00     0.001 A 
HETATM    6  C   LIG     1      15.492  30.815  14.268  1.00  0.00     0.010 A 
ENDROOT
BRANCH   1   7
HETATM    7  C   LIG     1      15.925  32.787  15.796  1.00  0.00     0.147 C 
HETATM    8  C   LIG     1      17.339  32.683  15.222  1.00  0.00     0.044 C 
BRANCH   7   9
HETATM    9  O   LIG     1      15.995  32.821  17.197  1.00  0.00    -0.391 OA
HETATM   10  H   LIG     1      15.320  33.485  17.499  1.00  0.00     0.210 HD
ENDBRANCH   7   9
ENDBRANCH   1   7
TORSDOF 2
ENDMDL
MODEL 18
REMARK VINA RESULT:      -5.1     10.675     11.699
REMARK  2 active torsions:
REMARK  status: ('A' for Active; 'I' for Inactive)
REMARK    1  A    between atoms: C_2  and  C_3 
REMARK    2  A    between atoms: C_2  and  O_9 
ROOT
HETATM    1  C   LIG     1      14.518  30.756  15.074  1.00  0.00    -0.030 A 
HETATM    2  C   LIG     1      15.554  31.708  15.058  1.00  0.00     0.010 A 
HETATM    3  C   LIG     1      15.590  32.729  16.012  1.00  0.00     0.001 A 
HETATM    4  C   LIG     1      14.594  32.811  16.989  1.00  0.00     0.000 A 
HETATM    5  C   LIG     1      13.559  31.873  17.011  1.00  0.00     0.001 A 
HETATM    6  C   LIG     1      13.518  30.850  16.057  1.00  0.00     0.010 A 
ENDROOT
BRANCH   1   7
HETATM    7  C   LIG     1      14.469  29.651  14.041  1.00  0.00     0.147 C 
HETATM    8  C   LIG     1      13.165  28.861  14.154  1.00  0.00     0.044 C 
BRANCH   7   9
HETATM    9  O   LIG     1      15.556  28.780  14.212  1.00  0.00    -0.391 OA
HETATM   10  H   LIG     1      16.210  29.251  14.794  1.00  0.00     0.210 HD
ENDBRANCH   7   9
ENDBRANCH   1   7
TORSDOF 2
ENDMDL
MODEL 19
REMARK VINA RESULT:      -5.0     10.639     11.706
REMARK  2 active torsions:
REMARK  status: ('A' for Active; 'I' for Inactive)
REMARK    1  A    between atoms: C_2  and  C_3 
REMARK    2  A    between atoms: C_2  and  O_9 
ROOT
HETATM    1  C   LIG     1      14.528  30.785  15.095  1.00  0.00    -0.030 A 
HETATM    2  C   LIG     1      13.543  30.862  16.097  1.00  0.00     0.010 A 
HETATM    3  C   LIG     1      13.587  31.880  17.054  1.00  0.00     0.001 A 
HETATM    4  C   LIG     1      14.613  32.829  17.022  1.00  0.00     0.000 A 
HETATM    5  C   LIG     1      15.597  32.759  16.033  1.00  0.00     0.001 A 
HETATM    6  C   LIG     1      15.558  31.741  15.074  1.00  0.00     0.010 A 
ENDROOT
BRANCH   1   7
HETATM    7  C   LIG     1      14.490  29.682  14.059  1.00  0.00     0.147 C 
HETATM    8  C   LIG     1      13.186  28.890  14.159  1.00  0.00     0.044 C 
BRANCH   7   9
HETATM    9  O   LIG     1      15.576  28.811  14.238  1.00  0.00    -0.391 OA
HETATM   10  H   LIG     1      15.892  28.560  13.330  1.00  0.00     0.210 HD
ENDBRANCH   7   9
ENDBRANCH   1   7
TORSDOF 2
ENDMDL
MODEL 20
REMARK VINA RESULT:      -4.8     10.550     11.580
REMARK  2 active torsions:
REMARK  status: ('A' for Active; 'I' for Inactive)
REMARK    1  A    between atoms: C_2  and  C_3 
REMARK    2  A    between atoms: C_2  and  O_9 
ROOT
HETATM    1  C   LIG     1      14.904  31.182  15.093  1.00  0.00    -0.030 A 
HETATM    2  C   LIG     1      13.724  30.425  15.228  1.00  0.00     0.010 A 
HETATM    3  C   LIG     1      12.814  30.713  16.249  1.00  0.00     0.001 A 
HETATM    4  C   LIG     1      13.071  31.755  17.145  1.00  0.00     0.000 A 
HETATM    5  C   LIG     1      14.241  32.509  17.021  1.00  0.00     0.001 A 
HETATM    6  C   LIG     1      15.155  32.224  16.002  1.00  0.00     0.010 A 
ENDROOT
BRANCH   1   7
HETATM    7  C   LIG     1      15.896  30.873  13.993  1.00  0.00     0.147 C 
HETATM    8  C   LIG     1      16.273  32.144  13.231  1.00  0.00     0.044 C 
BRANCH   7   9
HETATM    9  O   LIG     1      15.351  29.939  13.097  1.00  0.00    -0.391 OA
HETATM   10  H   LIG     1      15.682  30.186  12.193  1.00  0.00     0.210 HD
ENDBRANCH   7   9
ENDBRANCH   1   7
TORSDOF 2
ENDMDL
