REMARK  1 active torsions:
REMARK  status: ('A' for Active; 'I' for Inactive)
REMARK       I    between atoms: N_1  and  C_2 
REMARK    1  A    between atoms: C_2  and  C_3 
ROOT
HETATM    1  C   LIG     1      -0.185   0.017  -0.309  1.00  0.00     0.141 A 
HETATM    2  C   LIG     1       0.126   0.365   1.017  1.00  0.00     0.153 A 
HETATM    3  N   LIG     1       1.396   0.201   1.472  1.00  0.00    -0.269 NA
HETATM    4  C   LIG     1       2.376  -0.291   0.672  1.00  0.00     0.135 A 
HETATM    5  C   LIG     1       2.077  -0.627  -0.648  1.00  0.00     0.136 A 
HETATM    6  N   LIG     1       0.809  -0.463  -1.107  1.00  0.00    -0.253 NA
ENDROOT
BRANCH   1   7
HETATM    7  C   LIG     1      -1.543   0.179  -0.874  1.00  0.00     0.269 C 
HETATM    8  N   LIG     1      -2.694   0.357  -0.044  1.00  0.00    -0.365 N 
HETATM    9  H   LIG     1      -2.654   0.241   0.992  1.00  0.00     0.159 HD
HETATM   10  H   LIG     1      -3.627   0.524  -0.481  1.00  0.00     0.159 HD
HETATM   11  O   LIG     1      -1.694   0.140  -2.125  1.00  0.00    -0.266 OA
ENDBRANCH   1   7
TORSDOF 1
