MODEL 1
REMARK VINA RESULT:      -5.1      0.000      0.000
REMARK  1 active torsions:
REMARK  status: ('A' for Active; 'I' for Inactive)
REMARK       I    between atoms: N_1  and  C_2 
REMARK    1  A    between atoms: C_2  and  C_3 
ROOT
HETATM    1  C   LIG     1      17.065  36.909  24.267  1.00  0.00     0.141 A 
HETATM    2  C   LIG     1      17.555  37.659  25.349  1.00  0.00     0.153 A 
HETATM    3  N   LIG     1      18.066  37.017  26.433  1.00  0.00    -0.269 NA
HETATM    4  C   LIG     1      18.116  35.662  26.493  1.00  0.00     0.135 A 
HETATM    5  C   LIG     1      17.642  34.911  25.417  1.00  0.00     0.136 A 
HETATM    6  N   LIG     1      17.132  35.550  24.332  1.00  0.00    -0.253 NA
ENDROOT
BRANCH   1   7
HETATM    7  C   LIG     1      16.505  37.541  23.052  1.00  0.00     0.269 C 
HETATM    8  N   LIG     1      15.232  38.194  23.053  1.00  0.00    -0.365 N 
HETATM    9  H   LIG     1      14.579  38.134  23.865  1.00  0.00     0.159 HD
HETATM   10  H   LIG     1      14.897  38.677  22.191  1.00  0.00     0.159 HD
HETATM   11  O   LIG     1      17.161  37.487  21.976  1.00  0.00    -0.266 OA
ENDBRANCH   1   7
TORSDOF 1
ENDMDL
MODEL 2
REMARK VINA RESULT:      -5.0      2.141      3.595
REMARK  1 active torsions:
REMARK  status: ('A' for Active; 'I' for Inactive)
REMARK       I    between atoms: N_1  and  C_2 
REMARK    1  A    between atoms: C_2  and  C_3 
ROOT
HETATM    1  C   LIG     1      17.342  36.814  24.858  1.00  0.00     0.141 A 
HETATM    2  C   LIG     1      17.223  38.214  24.915  1.00  0.00     0.153 A 
HETATM    3  N   LIG     1      16.861  38.901  23.800  1.00  0.00    -0.269 NA
HETATM    4  C   LIG     1      16.609  38.265  22.628  1.00  0.00     0.135 A 
HETATM    5  C   LIG     1      16.713  36.875  22.568  1.00  0.00     0.136 A 
HETATM    6  N   LIG     1      17.073  36.185  23.681  1.00  0.00    -0.253 NA
ENDROOT
BRANCH   1   7
HETATM    7  C   LIG     1      17.721  36.002  26.036  1.00  0.00     0.269 C 
HETATM    8  N   LIG     1      17.133  34.725  26.297  1.00  0.00    -0.365 N 
HETATM    9  H   LIG     1      16.315  34.369  25.756  1.00  0.00     0.159 HD
HETATM   10  H   LIG     1      17.466  34.157  27.107  1.00  0.00     0.159 HD
HETATM   11  O   LIG     1      18.574  36.457  26.844  1.00  0.00    -0.266 OA
ENDBRANCH   1   7
TORSDOF 1
ENDMDL
MODEL 3
REMARK VINA RESULT:      -5.0      3.128      4.321
REMARK  1 active torsions:
REMARK  status: ('A' for Active; 'I' for Inactive)
REMARK       I    between atoms: N_1  and  C_2 
REMARK    1  A    between atoms: C_2  and  C_3 
ROOT
HETATM    1  C   LIG     1      17.544  38.221  21.982  1.00  0.00     0.141 A 
HETATM    2  C   LIG     1      18.386  39.282  21.607  1.00  0.00     0.153 A 
HETATM    3  N   LIG     1      19.203  39.140  20.530  1.00  0.00    -0.269 NA
HETATM    4  C   LIG     1      19.224  37.994  19.804  1.00  0.00     0.135 A 
HETATM    5  C   LIG     1      18.383  36.941  20.164  1.00  0.00     0.136 A 
HETATM    6  N   LIG     1      17.563  37.080  21.238  1.00  0.00    -0.253 NA
ENDROOT
BRANCH   1   7
HETATM    7  C   LIG     1      16.621  38.309  23.135  1.00  0.00     0.269 C 
HETATM    8  N   LIG     1      15.214  38.093  23.000  1.00  0.00    -0.365 N 
HETATM    9  H   LIG     1      14.754  38.002  22.068  1.00  0.00     0.159 HD
HETATM   10  H   LIG     1      14.604  38.108  23.847  1.00  0.00     0.159 HD
HETATM   11  O   LIG     1      17.086  38.603  24.270  1.00  0.00    -0.266 OA
ENDBRANCH   1   7
TORSDOF 1
ENDMDL
MODEL 4
REMARK VINA RESULT:      -4.9      1.768      2.481
REMARK  1 active torsions:
REMARK  status: ('A' for Active; 'I' for Inactive)
REMARK       I    between atoms: N_1  and  C_2 
REMARK    1  A    between atoms: C_2  and  C_3 
ROOT
HETATM    1  C   LIG     1      16.318  36.666  22.657  1.00  0.00     0.141 A 
HETATM    2  C   LIG     1      16.158  38.048  22.854  1.00  0.00     0.153 A 
HETATM    3  N   LIG     1      16.617  38.619  23.999  1.00  0.00    -0.269 NA
HETATM    4  C   LIG     1      17.231  37.882  24.959  1.00  0.00     0.135 A 
HETATM    5  C   LIG     1      17.403  36.512  24.765  1.00  0.00     0.136 A 
HETATM    6  N   LIG     1      16.947  35.938  23.621  1.00  0.00    -0.253 NA
ENDROOT
BRANCH   1   7
HETATM    7  C   LIG     1      15.852  35.980  21.431  1.00  0.00     0.269 C 
HETATM    8  N   LIG     1      14.475  35.662  21.216  1.00  0.00    -0.365 N 
HETATM    9  H   LIG     1      13.757  35.768  21.966  1.00  0.00     0.159 HD
HETATM   10  H   LIG     1      14.178  35.228  20.314  1.00  0.00     0.159 HD
HETATM   11  O   LIG     1      16.698  35.648  20.557  1.00  0.00    -0.266 OA
ENDBRANCH   1   7
TORSDOF 1
ENDMDL
MODEL 5
REMARK VINA RESULT:      -4.8      2.075      3.554
REMARK  1 active torsions:
REMARK  status: ('A' for Active; 'I' for Inactive)
REMARK       I    between atoms: N_1  and  C_2 
REMARK    1  A    between atoms: C_2  and  C_3 
ROOT
HETATM    1  C   LIG     1      17.208  36.920  23.629  1.00  0.00     0.141 A 
HETATM    2  C   LIG     1      17.449  37.837  22.592  1.00  0.00     0.153 A 
HETATM    3  N   LIG     1      17.466  37.403  21.304  1.00  0.00    -0.269 NA
HETATM    4  C   LIG     1      17.251  36.098  20.995  1.00  0.00     0.135 A 
HETATM    5  C   LIG     1      16.999  35.186  22.019  1.00  0.00     0.136 A 
HETATM    6  N   LIG     1      16.981  35.617  23.307  1.00  0.00    -0.253 NA
ENDROOT
BRANCH   1   7
HETATM    7  C   LIG     1      17.165  37.326  25.052  1.00  0.00     0.269 C 
HETATM    8  N   LIG     1      17.472  36.414  26.110  1.00  0.00    -0.365 N 
HETATM    9  H   LIG     1      17.601  35.392  25.942  1.00  0.00     0.159 HD
HETATM   10  H   LIG     1      17.485  36.751  27.098  1.00  0.00     0.159 HD
HETATM   11  O   LIG     1      16.830  38.506  25.343  1.00  0.00    -0.266 OA
ENDBRANCH   1   7
TORSDOF 1
ENDMDL
MODEL 6
REMARK VINA RESULT:      -4.8      8.807      9.928
REMARK  1 active torsions:
REMARK  status: ('A' for Active; 'I' for Inactive)
REMARK       I    between atoms: N_1  and  C_2 
REMARK    1  A    between atoms: C_2  and  C_3 
ROOT
HETATM    1  C   LIG     1      14.716  32.659  16.496  1.00  0.00     0.141 A 
HETATM    2  C   LIG     1      13.563  32.128  17.099  1.00  0.00     0.153 A 
HETATM    3  N   LIG     1      13.022  30.979  16.614  1.00  0.00    -0.269 NA
HETATM    4  C   LIG     1      13.573  30.329  15.558  1.00  0.00     0.135 A 
HETATM    5  C   LIG     1      14.724  30.844  14.962  1.00  0.00     0.136 A 
HETATM    6  N   LIG     1      15.269  31.991  15.445  1.00  0.00    -0.253 NA
ENDROOT
BRANCH   1   7
HETATM    7  C   LIG     1      15.364  33.899  16.978  1.00  0.00     0.269 C 
HETATM    8  N   LIG     1      15.253  34.334  18.336  1.00  0.00    -0.365 N 
HETATM    9  H   LIG     1      14.601  33.881  19.013  1.00  0.00     0.159 HD
HETATM   10  H   LIG     1      15.771  35.184  18.652  1.00  0.00     0.159 HD
HETATM   11  O   LIG     1      16.018  34.604  16.164  1.00  0.00    -0.266 OA
ENDBRANCH   1   7
TORSDOF 1
ENDMDL
MODEL 7
REMARK VINA RESULT:      -4.7      9.567     10.699
REMARK  1 active torsions:
REMARK  status: ('A' for Active; 'I' for Inactive)
REMARK       I    between atoms: N_1  and  C_2 
REMARK    1  A    between atoms: C_2  and  C_3 
ROOT
HETATM    1  C   LIG     1      14.719  31.776  16.046  1.00  0.00     0.141 A 
HETATM    2  C   LIG     1      15.520  32.931  16.059  1.00  0.00     0.153 A 
HETATM    3  N   LIG     1      16.313  33.209  14.991  1.00  0.00    -0.269 NA
HETATM    4  C   LIG     1      16.348  32.394  13.906  1.00  0.00     0.135 A 
HETATM    5  C   LIG     1      15.547  31.253  13.881  1.00  0.00     0.136 A 
HETATM    6  N   LIG     1      14.752  30.973  14.946  1.00  0.00    -0.253 NA
ENDROOT
BRANCH   1   7
HETATM    7  C   LIG     1      13.825  31.418  17.169  1.00  0.00     0.269 C 
HETATM    8  N   LIG     1      14.052  31.888  18.500  1.00  0.00    -0.365 N 
HETATM    9  H   LIG     1      14.929  32.385  18.770  1.00  0.00     0.159 HD
HETATM   10  H   LIG     1      13.368  31.660  19.254  1.00  0.00     0.159 HD
HETATM   11  O   LIG     1      12.842  30.659  16.950  1.00  0.00    -0.266 OA
ENDBRANCH   1   7
TORSDOF 1
ENDMDL
MODEL 8
REMARK VINA RESULT:      -4.7      4.041      5.183
REMARK  1 active torsions:
REMARK  status: ('A' for Active; 'I' for Inactive)
REMARK       I    between atoms: N_1  and  C_2 
REMARK    1  A    between atoms: C_2  and  C_3 
ROOT
HETATM    1  C   LIG     1      18.655  38.227  20.101  1.00  0.00     0.141 A 
HETATM    2  C   LIG     1      18.411  36.850  19.954  1.00  0.00     0.153 A 
HETATM    3  N   LIG     1      17.646  36.204  20.873  1.00  0.00    -0.269 NA
HETATM    4  C   LIG     1      17.107  36.860  21.932  1.00  0.00     0.135 A 
HETATM    5  C   LIG     1      17.335  38.228  22.077  1.00  0.00     0.136 A 
HETATM    6  N   LIG     1      18.098  38.878  21.160  1.00  0.00    -0.253 NA
ENDROOT
BRANCH   1   7
HETATM    7  C   LIG     1      19.469  38.996  19.134  1.00  0.00     0.269 C 
HETATM    8  N   LIG     1      18.943  39.433  17.878  1.00  0.00    -0.365 N 
HETATM    9  H   LIG     1      18.015  39.113  17.523  1.00  0.00     0.159 HD
HETATM   10  H   LIG     1      19.531  40.021  17.247  1.00  0.00     0.159 HD
HETATM   11  O   LIG     1      20.669  39.258  19.417  1.00  0.00    -0.266 OA
ENDBRANCH   1   7
TORSDOF 1
ENDMDL
MODEL 9
REMARK VINA RESULT:      -4.7      9.725     10.854
REMARK  1 active torsions:
REMARK  status: ('A' for Active; 'I' for Inactive)
REMARK       I    between atoms: N_1  and  C_2 
REMARK    1  A    between atoms: C_2  and  C_3 
ROOT
HETATM    1  C   LIG     1      15.329  32.270  15.546  1.00  0.00     0.141 A 
HETATM    2  C   LIG     1      16.163  32.334  14.416  1.00  0.00     0.153 A 
HETATM    3  N   LIG     1      16.113  31.340  13.491  1.00  0.00    -0.269 NA
HETATM    4  C   LIG     1      15.272  30.284  13.631  1.00  0.00     0.135 A 
HETATM    5  C   LIG     1      14.434  30.220  14.744  1.00  0.00     0.136 A 
HETATM    6  N   LIG     1      14.480  31.212  15.670  1.00  0.00    -0.253 NA
ENDROOT
BRANCH   1   7
HETATM    7  C   LIG     1      15.323  33.321  16.588  1.00  0.00     0.269 C 
HETATM    8  N   LIG     1      14.729  33.113  17.872  1.00  0.00    -0.365 N 
HETATM    9  H   LIG     1      14.153  32.270  18.087  1.00  0.00     0.159 HD
HETATM   10  H   LIG     1      14.794  33.858  18.600  1.00  0.00     0.159 HD
HETATM   11  O   LIG     1      15.840  34.441  16.330  1.00  0.00    -0.266 OA
ENDBRANCH   1   7
TORSDOF 1
ENDMDL
MODEL 10
REMARK VINA RESULT:      -4.6      4.019      5.099
REMARK  1 active torsions:
REMARK  status: ('A' for Active; 'I' for Inactive)
REMARK       I    between atoms: N_1  and  C_2 
REMARK    1  A    between atoms: C_2  and  C_3 
ROOT
HETATM    1  C   LIG     1      17.909  36.901  20.705  1.00  0.00     0.141 A 
HETATM    2  C   LIG     1      18.849  36.959  19.662  1.00  0.00     0.153 A 
HETATM    3  N   LIG     1      19.597  38.081  19.495  1.00  0.00    -0.269 NA
HETATM    4  C   LIG     1      19.458  39.152  20.318  1.00  0.00     0.135 A 
HETATM    5  C   LIG     1      18.536  39.097  21.363  1.00  0.00     0.136 A 
HETATM    6  N   LIG     1      17.788  37.976  21.533  1.00  0.00    -0.253 NA
ENDROOT
BRANCH   1   7
HETATM    7  C   LIG     1      17.069  35.708  20.951  1.00  0.00     0.269 C 
HETATM    8  N   LIG     1      16.238  35.142  19.934  1.00  0.00    -0.365 N 
HETATM    9  H   LIG     1      16.075  35.621  19.021  1.00  0.00     0.159 HD
HETATM   10  H   LIG     1      15.703  34.268  20.129  1.00  0.00     0.159 HD
HETATM   11  O   LIG     1      17.071  35.184  22.098  1.00  0.00    -0.266 OA
ENDBRANCH   1   7
TORSDOF 1
ENDMDL
MODEL 11
REMARK VINA RESULT:      -4.6     10.581     11.555
REMARK  1 active torsions:
REMARK  status: ('A' for Active; 'I' for Inactive)
REMARK       I    between atoms: N_1  and  C_2 
REMARK    1  A    between atoms: C_2  and  C_3 
ROOT
HETATM    1  C   LIG     1      14.105  30.541  15.277  1.00  0.00     0.141 A 
HETATM    2  C   LIG     1      13.114  30.730  16.256  1.00  0.00     0.153 A 
HETATM    3  N   LIG     1      13.227  31.762  17.133  1.00  0.00    -0.269 NA
HETATM    4  C   LIG     1      14.278  32.619  17.085  1.00  0.00     0.135 A 
HETATM    5  C   LIG     1      15.259  32.444  16.110  1.00  0.00     0.136 A 
HETATM    6  N   LIG     1      15.149  31.415  15.230  1.00  0.00    -0.253 NA
ENDROOT
BRANCH   1   7
HETATM    7  C   LIG     1      14.041  29.447  14.284  1.00  0.00     0.269 C 
HETATM    8  N   LIG     1      12.817  28.776  13.972  1.00  0.00    -0.365 N 
HETATM    9  H   LIG     1      11.946  28.926  14.525  1.00  0.00     0.159 HD
HETATM   10  H   LIG     1      12.802  28.047  13.225  1.00  0.00     0.159 HD
HETATM   11  O   LIG     1      15.101  29.080  13.707  1.00  0.00    -0.266 OA
ENDBRANCH   1   7
TORSDOF 1
ENDMDL
MODEL 12
REMARK VINA RESULT:      -4.6      9.482     10.301
REMARK  1 active torsions:
REMARK  status: ('A' for Active; 'I' for Inactive)
REMARK       I    between atoms: N_1  and  C_2 
REMARK    1  A    between atoms: C_2  and  C_3 
ROOT
HETATM    1  C   LIG     1      15.161  32.361  15.939  1.00  0.00     0.141 A 
HETATM    2  C   LIG     1      14.235  32.516  16.985  1.00  0.00     0.153 A 
HETATM    3  N   LIG     1      13.200  31.643  17.098  1.00  0.00    -0.269 NA
HETATM    4  C   LIG     1      13.040  30.618  16.222  1.00  0.00     0.135 A 
HETATM    5  C   LIG     1      13.962  30.451  15.190  1.00  0.00     0.136 A 
HETATM    6  N   LIG     1      14.999  31.321  15.074  1.00  0.00    -0.253 NA
ENDROOT
BRANCH   1   7
HETATM    7  C   LIG     1      16.317  33.267  15.763  1.00  0.00     0.269 C 
HETATM    8  N   LIG     1      17.587  32.797  15.302  1.00  0.00    -0.365 N 
HETATM    9  H   LIG     1      17.800  31.780  15.204  1.00  0.00     0.159 HD
HETATM   10  H   LIG     1      18.362  33.476  15.136  1.00  0.00     0.159 HD
HETATM   11  O   LIG     1      16.186  34.489  16.045  1.00  0.00    -0.266 OA
ENDBRANCH   1   7
TORSDOF 1
ENDMDL
MODEL 13
REMARK VINA RESULT:      -4.5      9.033     10.327
REMARK  1 active torsions:
REMARK  status: ('A' for Active; 'I' for Inactive)
REMARK       I    between atoms: N_1  and  C_2 
REMARK    1  A    between atoms: C_2  and  C_3 
ROOT
HETATM    1  C   LIG     1      15.864  32.903  15.837  1.00  0.00     0.141 A 
HETATM    2  C   LIG     1      15.855  31.941  14.812  1.00  0.00     0.153 A 
HETATM    3  N   LIG     1      16.640  32.122  13.717  1.00  0.00    -0.269 NA
HETATM    4  C   LIG     1      17.437  33.213  13.590  1.00  0.00     0.135 A 
HETATM    5  C   LIG     1      17.460  34.165  14.609  1.00  0.00     0.136 A 
HETATM    6  N   LIG     1      16.678  33.988  15.705  1.00  0.00    -0.253 NA
ENDROOT
BRANCH   1   7
HETATM    7  C   LIG     1      15.044  32.767  17.061  1.00  0.00     0.269 C 
HETATM    8  N   LIG     1      13.616  32.696  17.014  1.00  0.00    -0.365 N 
HETATM    9  H   LIG     1      13.081  32.877  16.137  1.00  0.00     0.159 HD
HETATM   10  H   LIG     1      13.076  32.543  17.893  1.00  0.00     0.159 HD
HETATM   11  O   LIG     1      15.619  32.731  18.182  1.00  0.00    -0.266 OA
ENDBRANCH   1   7
TORSDOF 1
ENDMDL
MODEL 14
REMARK VINA RESULT:      -4.4     10.017     11.062
REMARK  1 active torsions:
REMARK  status: ('A' for Active; 'I' for Inactive)
REMARK       I    between atoms: N_1  and  C_2 
REMARK    1  A    between atoms: C_2  and  C_3 
ROOT
HETATM    1  C   LIG     1      14.704  31.481  15.808  1.00  0.00     0.141 A 
HETATM    2  C   LIG     1      14.890  30.811  14.586  1.00  0.00     0.153 A 
HETATM    3  N   LIG     1      15.822  31.267  13.708  1.00  0.00    -0.269 NA
HETATM    4  C   LIG     1      16.581  32.357  13.985  1.00  0.00     0.135 A 
HETATM    5  C   LIG     1      16.410  33.019  15.200  1.00  0.00     0.136 A 
HETATM    6  N   LIG     1      15.481  32.565  16.081  1.00  0.00    -0.253 NA
ENDROOT
BRANCH   1   7
HETATM    7  C   LIG     1      13.716  31.033  16.815  1.00  0.00     0.269 C 
HETATM    8  N   LIG     1      12.499  30.379  16.446  1.00  0.00    -0.365 N 
HETATM    9  H   LIG     1      12.184  30.313  15.454  1.00  0.00     0.159 HD
HETATM   10  H   LIG     1      11.854  30.029  17.188  1.00  0.00     0.159 HD
HETATM   11  O   LIG     1      13.945  31.252  18.035  1.00  0.00    -0.266 OA
ENDBRANCH   1   7
TORSDOF 1
ENDMDL
MODEL 15
REMARK VINA RESULT:      -4.4     10.418     11.511
REMARK  1 active torsions:
REMARK  status: ('A' for Active; 'I' for Inactive)
REMARK       I    between atoms: N_1  and  C_2 
REMARK    1  A    between atoms: C_2  and  C_3 
ROOT
HETATM    1  C   LIG     1      15.963  31.909  14.463  1.00  0.00     0.141 A 
HETATM    2  C   LIG     1      16.036  32.791  15.555  1.00  0.00     0.153 A 
HETATM    3  N   LIG     1      16.853  33.875  15.487  1.00  0.00    -0.269 NA
HETATM    4  C   LIG     1      17.600  34.129  14.383  1.00  0.00     0.135 A 
HETATM    5  C   LIG     1      17.523  33.265  13.291  1.00  0.00     0.136 A 
HETATM    6  N   LIG     1      16.707  32.181  13.355  1.00  0.00    -0.253 NA
ENDROOT
BRANCH   1   7
HETATM    7  C   LIG     1      15.088  30.716  14.464  1.00  0.00     0.269 C 
HETATM    8  N   LIG     1      15.087  29.775  13.387  1.00  0.00    -0.365 N 
HETATM    9  H   LIG     1      15.592  29.955  12.493  1.00  0.00     0.159 HD
HETATM   10  H   LIG     1      14.496  28.916  13.450  1.00  0.00     0.159 HD
HETATM   11  O   LIG     1      14.305  30.532  15.435  1.00  0.00    -0.266 OA
ENDBRANCH   1   7
TORSDOF 1
ENDMDL
MODEL 16
REMARK VINA RESULT:      -4.4     10.301     11.378
REMARK  1 active torsions:
REMARK  status: ('A' for Active; 'I' for Inactive)
REMARK       I    between atoms: N_1  and  C_2 
REMARK    1  A    between atoms: C_2  and  C_3 
ROOT
HETATM    1  C   LIG     1      15.669  31.799  15.029  1.00  0.00     0.141 A 
HETATM    2  C   LIG     1      14.519  31.452  15.760  1.00  0.00     0.153 A 
HETATM    3  N   LIG     1      13.782  30.376  15.378  1.00  0.00    -0.269 NA
HETATM    4  C   LIG     1      14.133  29.624  14.303  1.00  0.00     0.135 A 
HETATM    5  C   LIG     1      15.279  29.956  13.581  1.00  0.00     0.136 A 
HETATM    6  N   LIG     1      16.019  31.030  13.961  1.00  0.00    -0.253 NA
ENDROOT
BRANCH   1   7
HETATM    7  C   LIG     1      16.523  32.951  15.395  1.00  0.00     0.269 C 
HETATM    8  N   LIG     1      17.924  32.977  15.107  1.00  0.00    -0.365 N 
HETATM    9  H   LIG     1      18.435  32.138  14.757  1.00  0.00     0.159 HD
HETATM   10  H   LIG     1      18.482  33.831  15.331  1.00  0.00     0.159 HD
HETATM   11  O   LIG     1      16.006  33.931  15.996  1.00  0.00    -0.266 OA
ENDBRANCH   1   7
TORSDOF 1
ENDMDL
MODEL 17
REMARK VINA RESULT:      -4.3      9.521     10.420
REMARK  1 active torsions:
REMARK  status: ('A' for Active; 'I' for Inactive)
REMARK       I    between atoms: N_1  and  C_2 
REMARK    1  A    between atoms: C_2  and  C_3 
ROOT
HETATM    1  C   LIG     1      15.413  32.421  15.772  1.00  0.00     0.141 A 
HETATM    2  C   LIG     1      15.217  31.302  14.944  1.00  0.00     0.153 A 
HETATM    3  N   LIG     1      14.144  30.494  15.153  1.00  0.00    -0.269 NA
HETATM    4  C   LIG     1      13.253  30.744  16.145  1.00  0.00     0.135 A 
HETATM    5  C   LIG     1      13.434  31.859  16.962  1.00  0.00     0.136 A 
HETATM    6  N   LIG     1      14.504  32.670  16.756  1.00  0.00    -0.253 NA
ENDROOT
BRANCH   1   7
HETATM    7  C   LIG     1      16.551  33.349  15.596  1.00  0.00     0.269 C 
HETATM    8  N   LIG     1      17.831  32.902  15.140  1.00  0.00    -0.365 N 
HETATM    9  H   LIG     1      18.064  31.889  15.046  1.00  0.00     0.159 HD
HETATM   10  H   LIG     1      18.593  33.595  14.974  1.00  0.00     0.159 HD
HETATM   11  O   LIG     1      16.396  34.569  15.874  1.00  0.00    -0.266 OA
ENDBRANCH   1   7
TORSDOF 1
ENDMDL
MODEL 18
REMARK VINA RESULT:      -4.3      2.373      3.125
REMARK  1 active torsions:
REMARK  status: ('A' for Active; 'I' for Inactive)
REMARK       I    between atoms: N_1  and  C_2 
REMARK    1  A    between atoms: C_2  and  C_3 
ROOT
HETATM    1  C   LIG     1      17.092  36.393  22.143  1.00  0.00     0.141 A 
HETATM    2  C   LIG     1      17.068  35.473  23.206  1.00  0.00     0.153 A 
HETATM    3  N   LIG     1      17.099  35.927  24.486  1.00  0.00    -0.269 NA
HETATM    4  C   LIG     1      17.149  37.255  24.764  1.00  0.00     0.135 A 
HETATM    5  C   LIG     1      17.160  38.173  23.715  1.00  0.00     0.136 A 
HETATM    6  N   LIG     1      17.128  37.723  22.434  1.00  0.00    -0.253 NA
ENDROOT
BRANCH   1   7
HETATM    7  C   LIG     1      17.050  35.969  20.726  1.00  0.00     0.269 C 
HETATM    8  N   LIG     1      18.055  36.362  19.787  1.00  0.00    -0.365 N 
HETATM    9  H   LIG     1      18.781  37.074  20.017  1.00  0.00     0.159 HD
HETATM   10  H   LIG     1      18.021  35.997  18.810  1.00  0.00     0.159 HD
HETATM   11  O   LIG     1      16.090  35.256  20.328  1.00  0.00    -0.266 OA
ENDBRANCH   1   7
TORSDOF 1
ENDMDL
MODEL 19
REMARK VINA RESULT:      -4.3      7.336      8.211
REMARK  1 active torsions:
REMARK  status: ('A' for Active; 'I' for Inactive)
REMARK       I    between atoms: N_1  and  C_2 
REMARK    1  A    between atoms: C_2  and  C_3 
ROOT
HETATM    1  C   LIG     1      15.169  32.823  17.715  1.00  0.00     0.141 A 
HETATM    2  C   LIG     1      14.431  31.638  17.877  1.00  0.00     0.153 A 
HETATM    3  N   LIG     1      14.204  31.156  19.128  1.00  0.00    -0.269 NA
HETATM    4  C   LIG     1      14.673  31.797  20.228  1.00  0.00     0.135 A 
HETATM    5  C   LIG     1      15.396  32.980  20.075  1.00  0.00     0.136 A 
HETATM    6  N   LIG     1      15.623  33.465  18.827  1.00  0.00    -0.253 NA
ENDROOT
BRANCH   1   7
HETATM    7  C   LIG     1      15.444  33.410  16.385  1.00  0.00     0.269 C 
HETATM    8  N   LIG     1      15.729  32.599  15.242  1.00  0.00    -0.365 N 
HETATM    9  H   LIG     1      15.895  31.572  15.318  1.00  0.00     0.159 HD
HETATM   10  H   LIG     1      15.863  33.048  14.309  1.00  0.00     0.159 HD
HETATM   11  O   LIG     1      15.447  34.665  16.258  1.00  0.00    -0.266 OA
ENDBRANCH   1   7
TORSDOF 1
ENDMDL
MODEL 20
REMARK VINA RESULT:      -3.7      9.431     10.431
REMARK  1 active torsions:
REMARK  status: ('A' for Active; 'I' for Inactive)
REMARK       I    between atoms: N_1  and  C_2 
REMARK    1  A    between atoms: C_2  and  C_3 
ROOT
HETATM    1  C   LIG     1      15.901  32.656  14.963  1.00  0.00     0.141 A 
HETATM    2  C   LIG     1      16.356  33.906  15.415  1.00  0.00     0.153 A 
HETATM    3  N   LIG     1      15.903  34.396  16.599  1.00  0.00    -0.269 NA
HETATM    4  C   LIG     1      15.018  33.701  17.359  1.00  0.00     0.135 A 
HETATM    5  C   LIG     1      14.572  32.455  16.922  1.00  0.00     0.136 A 
HETATM    6  N   LIG     1      15.024  31.961  15.740  1.00  0.00    -0.253 NA
ENDROOT
BRANCH   1   7
HETATM    7  C   LIG     1      16.361  32.057  13.690  1.00  0.00     0.269 C 
HETATM    8  N   LIG     1      17.148  32.791  12.747  1.00  0.00    -0.365 N 
HETATM    9  H   LIG     1      17.315  33.816  12.843  1.00  0.00     0.159 HD
HETATM   10  H   LIG     1      17.500  32.317  11.886  1.00  0.00     0.159 HD
HETATM   11  O   LIG     1      16.033  30.871  13.418  1.00  0.00    -0.266 OA
ENDBRANCH   1   7
TORSDOF 1
ENDMDL
