REMARK  1 active torsions:
REMARK  status: ('A' for Active; 'I' for Inactive)
REMARK       I    between atoms: N_1  and  C_2 
REMARK    1  A    between atoms: C_2  and  C_3 
ROOT
HETATM    1  C   LIG     1      -0.261   0.154   0.264  1.00  0.00     0.049 A 
HETATM    2  C   LIG     1       0.747   1.115   0.071  1.00  0.00     0.020 A 
HETATM    3  C   LIG     1       2.083   0.722  -0.034  1.00  0.00     0.020 A 
HETATM    4  C   LIG     1       2.407  -0.631   0.063  1.00  0.00     0.116 A 
HETATM    5  N   LIG     1       1.428  -1.551   0.264  1.00  0.00    -0.272 NA
HETATM    6  C   LIG     1       0.119  -1.197   0.366  1.00  0.00     0.133 A 
ENDROOT
BRANCH   1   7
HETATM    7  C   LIG     1      -1.679   0.574   0.379  1.00  0.00     0.250 C 
HETATM    8  N   LIG     1      -2.752  -0.339   0.133  1.00  0.00    -0.366 N 
HETATM    9  H   LIG     1      -3.739  -0.032   0.278  1.00  0.00     0.159 HD
HETATM   10  H   LIG     1      -2.588  -1.285  -0.276  1.00  0.00     0.159 HD
HETATM   11  O   LIG     1      -1.953   1.765   0.688  1.00  0.00    -0.268 OA
ENDBRANCH   1   7
TORSDOF 1
