MODEL 1
REMARK VINA RESULT:      -5.8      0.000      0.000
REMARK  1 active torsions:
REMARK  status: ('A' for Active; 'I' for Inactive)
REMARK       I    between atoms: N_1  and  C_2 
REMARK    1  A    between atoms: C_2  and  C_3 
ROOT
HETATM    1  C   LIG     1      17.080  36.824  24.279  1.00  0.00     0.049 A 
HETATM    2  C   LIG     1      17.142  35.430  24.444  1.00  0.00     0.020 A 
HETATM    3  C   LIG     1      17.702  34.883  25.601  1.00  0.00     0.020 A 
HETATM    4  C   LIG     1      18.207  35.733  26.584  1.00  0.00     0.116 A 
HETATM    5  N   LIG     1      18.156  37.079  26.409  1.00  0.00    -0.272 NA
HETATM    6  C   LIG     1      17.612  37.639  25.295  1.00  0.00     0.133 A 
ENDROOT
BRANCH   1   7
HETATM    7  C   LIG     1      16.487  37.403  23.048  1.00  0.00     0.250 C 
HETATM    8  N   LIG     1      15.257  38.132  23.082  1.00  0.00    -0.366 N 
HETATM    9  H   LIG     1      14.893  38.578  22.211  1.00  0.00     0.159 HD
HETATM   10  H   LIG     1      14.656  38.161  23.935  1.00  0.00     0.159 HD
HETATM   11  O   LIG     1      17.069  37.243  21.942  1.00  0.00    -0.268 OA
ENDBRANCH   1   7
TORSDOF 1
ENDMDL
MODEL 2
REMARK VINA RESULT:      -5.7      3.152      4.643
REMARK  1 active torsions:
REMARK  status: ('A' for Active; 'I' for Inactive)
REMARK       I    between atoms: N_1  and  C_2 
REMARK    1  A    between atoms: C_2  and  C_3 
ROOT
HETATM    1  C   LIG     1      17.492  38.164  21.966  1.00  0.00     0.049 A 
HETATM    2  C   LIG     1      18.332  39.226  21.591  1.00  0.00     0.020 A 
HETATM    3  C   LIG     1      19.180  39.098  20.488  1.00  0.00     0.020 A 
HETATM    4  C   LIG     1      19.190  37.902  19.770  1.00  0.00     0.116 A 
HETATM    5  N   LIG     1      18.385  36.876  20.149  1.00  0.00    -0.272 NA
HETATM    6  C   LIG     1      17.547  36.975  21.215  1.00  0.00     0.133 A 
ENDROOT
BRANCH   1   7
HETATM    7  C   LIG     1      16.595  38.301  23.139  1.00  0.00     0.250 C 
HETATM    8  N   LIG     1      15.186  38.075  23.035  1.00  0.00    -0.366 N 
HETATM    9  H   LIG     1      14.588  38.122  23.889  1.00  0.00     0.159 HD
HETATM   10  H   LIG     1      14.715  37.951  22.112  1.00  0.00     0.159 HD
HETATM   11  O   LIG     1      17.075  38.637  24.255  1.00  0.00    -0.268 OA
ENDBRANCH   1   7
TORSDOF 1
ENDMDL
MODEL 3
REMARK VINA RESULT:      -5.4      4.028      5.221
REMARK  1 active torsions:
REMARK  status: ('A' for Active; 'I' for Inactive)
REMARK       I    between atoms: N_1  and  C_2 
REMARK    1  A    between atoms: C_2  and  C_3 
ROOT
HETATM    1  C   LIG     1      18.666  38.262  20.137  1.00  0.00     0.049 A 
HETATM    2  C   LIG     1      18.101  38.944  21.229  1.00  0.00     0.020 A 
HETATM    3  C   LIG     1      17.320  38.257  22.161  1.00  0.00     0.020 A 
HETATM    4  C   LIG     1      17.100  36.890  21.992  1.00  0.00     0.116 A 
HETATM    5  N   LIG     1      17.638  36.242  20.926  1.00  0.00    -0.272 NA
HETATM    6  C   LIG     1      18.405  36.886  20.006  1.00  0.00     0.133 A 
ENDROOT
BRANCH   1   7
HETATM    7  C   LIG     1      19.492  38.995  19.147  1.00  0.00     0.250 C 
HETATM    8  N   LIG     1      18.958  39.406  17.885  1.00  0.00    -0.366 N 
HETATM    9  H   LIG     1      19.545  39.970  17.232  1.00  0.00     0.159 HD
HETATM   10  H   LIG     1      18.024  39.083  17.550  1.00  0.00     0.159 HD
HETATM   11  O   LIG     1      20.697  39.255  19.411  1.00  0.00    -0.268 OA
ENDBRANCH   1   7
TORSDOF 1
ENDMDL
MODEL 4
REMARK VINA RESULT:      -5.4      3.968      4.940
REMARK  1 active torsions:
REMARK  status: ('A' for Active; 'I' for Inactive)
REMARK       I    between atoms: N_1  and  C_2 
REMARK    1  A    between atoms: C_2  and  C_3 
ROOT
HETATM    1  C   LIG     1      17.883  36.870  20.753  1.00  0.00     0.049 A 
HETATM    2  C   LIG     1      18.823  36.918  19.709  1.00  0.00     0.020 A 
HETATM    3  C   LIG     1      19.596  38.064  19.510  1.00  0.00     0.020 A 
HETATM    4  C   LIG     1      19.420  39.162  20.352  1.00  0.00     0.116 A 
HETATM    5  N   LIG     1      18.500  39.112  21.350  1.00  0.00    -0.272 NA
HETATM    6  C   LIG     1      17.736  38.008  21.568  1.00  0.00     0.133 A 
ENDROOT
BRANCH   1   7
HETATM    7  C   LIG     1      17.061  35.653  20.960  1.00  0.00     0.250 C 
HETATM    8  N   LIG     1      16.211  35.140  19.930  1.00  0.00    -0.366 N 
HETATM    9  H   LIG     1      15.689  34.250  20.084  1.00  0.00     0.159 HD
HETATM   10  H   LIG     1      16.023  35.675  19.054  1.00  0.00     0.159 HD
HETATM   11  O   LIG     1      17.096  35.059  22.071  1.00  0.00    -0.268 OA
ENDBRANCH   1   7
TORSDOF 1
ENDMDL
MODEL 5
REMARK VINA RESULT:      -5.4      1.928      3.536
REMARK  1 active torsions:
REMARK  status: ('A' for Active; 'I' for Inactive)
REMARK       I    between atoms: N_1  and  C_2 
REMARK    1  A    between atoms: C_2  and  C_3 
ROOT
HETATM    1  C   LIG     1      17.358  37.053  24.054  1.00  0.00     0.049 A 
HETATM    2  C   LIG     1      17.144  35.670  23.912  1.00  0.00     0.020 A 
HETATM    3  C   LIG     1      16.910  35.120  22.650  1.00  0.00     0.020 A 
HETATM    4  C   LIG     1      16.882  35.957  21.535  1.00  0.00     0.116 A 
HETATM    5  N   LIG     1      17.076  37.294  21.683  1.00  0.00    -0.272 NA
HETATM    6  C   LIG     1      17.309  37.855  22.900  1.00  0.00     0.133 A 
ENDROOT
BRANCH   1   7
HETATM    7  C   LIG     1      17.602  37.635  25.397  1.00  0.00     0.250 C 
HETATM    8  N   LIG     1      18.586  37.090  26.280  1.00  0.00    -0.366 N 
HETATM    9  H   LIG     1      18.777  37.556  27.195  1.00  0.00     0.159 HD
HETATM   10  H   LIG     1      19.063  36.184  26.083  1.00  0.00     0.159 HD
HETATM   11  O   LIG     1      16.923  38.625  25.779  1.00  0.00    -0.268 OA
ENDBRANCH   1   7
TORSDOF 1
ENDMDL
MODEL 6
REMARK VINA RESULT:      -5.4      9.702     10.898
REMARK  1 active torsions:
REMARK  status: ('A' for Active; 'I' for Inactive)
REMARK       I    between atoms: N_1  and  C_2 
REMARK    1  A    between atoms: C_2  and  C_3 
ROOT
HETATM    1  C   LIG     1      14.980  31.777  15.945  1.00  0.00     0.049 A 
HETATM    2  C   LIG     1      14.144  30.703  15.595  1.00  0.00     0.020 A 
HETATM    3  C   LIG     1      14.307  30.055  14.368  1.00  0.00     0.020 A 
HETATM    4  C   LIG     1      15.300  30.491  13.492  1.00  0.00     0.116 A 
HETATM    5  N   LIG     1      16.094  31.539  13.833  1.00  0.00    -0.272 NA
HETATM    6  C   LIG     1      15.960  32.185  15.022  1.00  0.00     0.133 A 
ENDROOT
BRANCH   1   7
HETATM    7  C   LIG     1      14.802  32.466  17.247  1.00  0.00     0.250 C 
HETATM    8  N   LIG     1      13.937  31.943  18.258  1.00  0.00    -0.366 N 
HETATM    9  H   LIG     1      13.876  32.418  19.186  1.00  0.00     0.159 HD
HETATM   10  H   LIG     1      13.289  31.147  18.071  1.00  0.00     0.159 HD
HETATM   11  O   LIG     1      15.415  33.545  17.469  1.00  0.00    -0.268 OA
ENDBRANCH   1   7
TORSDOF 1
ENDMDL
MODEL 7
REMARK VINA RESULT:      -5.3      2.155      3.626
REMARK  1 active torsions:
REMARK  status: ('A' for Active; 'I' for Inactive)
REMARK       I    between atoms: N_1  and  C_2 
REMARK    1  A    between atoms: C_2  and  C_3 
ROOT
HETATM    1  C   LIG     1      17.346  36.775  24.819  1.00  0.00     0.049 A 
HETATM    2  C   LIG     1      17.083  36.125  23.600  1.00  0.00     0.020 A 
HETATM    3  C   LIG     1      16.723  36.866  22.472  1.00  0.00     0.020 A 
HETATM    4  C   LIG     1      16.619  38.253  22.569  1.00  0.00     0.116 A 
HETATM    5  N   LIG     1      16.861  38.870  23.755  1.00  0.00    -0.272 NA
HETATM    6  C   LIG     1      17.217  38.175  24.868  1.00  0.00     0.133 A 
ENDROOT
BRANCH   1   7
HETATM    7  C   LIG     1      17.724  35.986  26.017  1.00  0.00     0.250 C 
HETATM    8  N   LIG     1      17.118  34.722  26.303  1.00  0.00    -0.366 N 
HETATM    9  H   LIG     1      17.445  34.162  27.121  1.00  0.00     0.159 HD
HETATM   10  H   LIG     1      16.290  34.375  25.770  1.00  0.00     0.159 HD
HETATM   11  O   LIG     1      18.590  36.439  26.813  1.00  0.00    -0.268 OA
ENDBRANCH   1   7
TORSDOF 1
ENDMDL
MODEL 8
REMARK VINA RESULT:      -5.3      8.744      9.996
REMARK  1 active torsions:
REMARK  status: ('A' for Active; 'I' for Inactive)
REMARK       I    between atoms: N_1  and  C_2 
REMARK    1  A    between atoms: C_2  and  C_3 
ROOT
HETATM    1  C   LIG     1      14.698  32.624  16.486  1.00  0.00     0.049 A 
HETATM    2  C   LIG     1      15.272  31.898  15.427  1.00  0.00     0.020 A 
HETATM    3  C   LIG     1      14.660  30.733  14.960  1.00  0.00     0.020 A 
HETATM    4  C   LIG     1      13.480  30.293  15.560  1.00  0.00     0.116 A 
HETATM    5  N   LIG     1      12.941  30.992  16.592  1.00  0.00    -0.272 NA
HETATM    6  C   LIG     1      13.513  32.132  17.064  1.00  0.00     0.133 A 
ENDROOT
BRANCH   1   7
HETATM    7  C   LIG     1      15.352  33.859  16.983  1.00  0.00     0.250 C 
HETATM    8  N   LIG     1      15.257  34.257  18.353  1.00  0.00    -0.366 N 
HETATM    9  H   LIG     1      15.775  35.099  18.687  1.00  0.00     0.159 HD
HETATM   10  H   LIG     1      14.611  33.782  19.021  1.00  0.00     0.159 HD
HETATM   11  O   LIG     1      15.997  34.588  16.182  1.00  0.00    -0.268 OA
ENDBRANCH   1   7
TORSDOF 1
ENDMDL
MODEL 9
REMARK VINA RESULT:      -5.3      8.941     10.181
REMARK  1 active torsions:
REMARK  status: ('A' for Active; 'I' for Inactive)
REMARK       I    between atoms: N_1  and  C_2 
REMARK    1  A    between atoms: C_2  and  C_3 
ROOT
HETATM    1  C   LIG     1      14.763  32.468  16.411  1.00  0.00     0.049 A 
HETATM    2  C   LIG     1      13.567  31.862  16.836  1.00  0.00     0.020 A 
HETATM    3  C   LIG     1      13.078  30.732  16.176  1.00  0.00     0.020 A 
HETATM    4  C   LIG     1      13.783  30.218  15.088  1.00  0.00     0.116 A 
HETATM    5  N   LIG     1      14.929  30.819  14.676  1.00  0.00    -0.272 NA
HETATM    6  C   LIG     1      15.430  31.917  15.302  1.00  0.00     0.133 A 
ENDROOT
BRANCH   1   7
HETATM    7  C   LIG     1      15.278  33.670  17.111  1.00  0.00     0.250 C 
HETATM    8  N   LIG     1      15.233  33.783  18.536  1.00  0.00    -0.366 N 
HETATM    9  H   LIG     1      15.655  34.615  19.005  1.00  0.00     0.159 HD
HETATM   10  H   LIG     1      14.709  33.101  19.127  1.00  0.00     0.159 HD
HETATM   11  O   LIG     1      15.757  34.624  16.440  1.00  0.00    -0.268 OA
ENDBRANCH   1   7
TORSDOF 1
ENDMDL
MODEL 10
REMARK VINA RESULT:      -5.2      3.335      3.875
REMARK  1 active torsions:
REMARK  status: ('A' for Active; 'I' for Inactive)
REMARK       I    between atoms: N_1  and  C_2 
REMARK    1  A    between atoms: C_2  and  C_3 
ROOT
HETATM    1  C   LIG     1      16.144  36.538  21.736  1.00  0.00     0.049 A 
HETATM    2  C   LIG     1      17.402  37.036  21.352  1.00  0.00     0.020 A 
HETATM    3  C   LIG     1      17.866  38.248  21.868  1.00  0.00     0.020 A 
HETATM    4  C   LIG     1      17.066  38.963  22.759  1.00  0.00     0.116 A 
HETATM    5  N   LIG     1      15.846  38.481  23.113  1.00  0.00    -0.272 NA
HETATM    6  C   LIG     1      15.371  37.302  22.630  1.00  0.00     0.133 A 
ENDROOT
BRANCH   1   7
HETATM    7  C   LIG     1      15.652  35.252  21.184  1.00  0.00     0.250 C 
HETATM    8  N   LIG     1      14.365  34.733  21.531  1.00  0.00    -0.366 N 
HETATM    9  H   LIG     1      14.020  33.856  21.083  1.00  0.00     0.159 HD
HETATM   10  H   LIG     1      13.787  35.156  22.290  1.00  0.00     0.159 HD
HETATM   11  O   LIG     1      16.383  34.589  20.401  1.00  0.00    -0.268 OA
ENDBRANCH   1   7
TORSDOF 1
ENDMDL
MODEL 11
REMARK VINA RESULT:      -5.1      9.471     10.358
REMARK  1 active torsions:
REMARK  status: ('A' for Active; 'I' for Inactive)
REMARK       I    between atoms: N_1  and  C_2 
REMARK    1  A    between atoms: C_2  and  C_3 
ROOT
HETATM    1  C   LIG     1      15.151  32.339  15.917  1.00  0.00     0.049 A 
HETATM    2  C   LIG     1      14.987  31.244  15.050  1.00  0.00     0.020 A 
HETATM    3  C   LIG     1      13.895  30.386  15.199  1.00  0.00     0.020 A 
HETATM    4  C   LIG     1      12.975  30.621  16.221  1.00  0.00     0.116 A 
HETATM    5  N   LIG     1      13.150  31.673  17.063  1.00  0.00    -0.272 NA
HETATM    6  C   LIG     1      14.201  32.526  16.938  1.00  0.00     0.133 A 
ENDROOT
BRANCH   1   7
HETATM    7  C   LIG     1      16.313  33.247  15.759  1.00  0.00     0.250 C 
HETATM    8  N   LIG     1      17.577  32.769  15.289  1.00  0.00    -0.366 N 
HETATM    9  H   LIG     1      18.360  33.441  15.133  1.00  0.00     0.159 HD
HETATM   10  H   LIG     1      17.776  31.751  15.180  1.00  0.00     0.159 HD
HETATM   11  O   LIG     1      16.196  34.466  16.055  1.00  0.00    -0.268 OA
ENDBRANCH   1   7
TORSDOF 1
ENDMDL
MODEL 12
REMARK VINA RESULT:      -5.1      9.700     10.683
REMARK  1 active torsions:
REMARK  status: ('A' for Active; 'I' for Inactive)
REMARK       I    between atoms: N_1  and  C_2 
REMARK    1  A    between atoms: C_2  and  C_3 
ROOT
HETATM    1  C   LIG     1      14.620  31.795  16.113  1.00  0.00     0.049 A 
HETATM    2  C   LIG     1      14.564  30.824  15.099  1.00  0.00     0.020 A 
HETATM    3  C   LIG     1      15.381  30.936  13.971  1.00  0.00     0.020 A 
HETATM    4  C   LIG     1      16.245  32.024  13.859  1.00  0.00     0.116 A 
HETATM    5  N   LIG     1      16.282  32.966  14.838  1.00  0.00    -0.272 NA
HETATM    6  C   LIG     1      15.501  32.880  15.947  1.00  0.00     0.133 A 
ENDROOT
BRANCH   1   7
HETATM    7  C   LIG     1      13.749  31.676  17.308  1.00  0.00     0.250 C 
HETATM    8  N   LIG     1      12.340  31.913  17.233  1.00  0.00    -0.366 N 
HETATM    9  H   LIG     1      11.743  31.765  18.077  1.00  0.00     0.159 HD
HETATM   10  H   LIG     1      11.894  32.318  16.381  1.00  0.00     0.159 HD
HETATM   11  O   LIG     1      14.256  31.372  18.421  1.00  0.00    -0.268 OA
ENDBRANCH   1   7
TORSDOF 1
ENDMDL
MODEL 13
REMARK VINA RESULT:      -5.1     10.494     11.524
REMARK  1 active torsions:
REMARK  status: ('A' for Active; 'I' for Inactive)
REMARK       I    between atoms: N_1  and  C_2 
REMARK    1  A    between atoms: C_2  and  C_3 
ROOT
HETATM    1  C   LIG     1      14.427  30.675  15.101  1.00  0.00     0.049 A 
HETATM    2  C   LIG     1      13.628  30.899  16.236  1.00  0.00     0.020 A 
HETATM    3  C   LIG     1      13.822  32.039  17.019  1.00  0.00     0.020 A 
HETATM    4  C   LIG     1      14.821  32.947  16.668  1.00  0.00     0.116 A 
HETATM    5  N   LIG     1      15.597  32.715  15.578  1.00  0.00    -0.272 NA
HETATM    6  C   LIG     1      15.427  31.616  14.796  1.00  0.00     0.133 A 
ENDROOT
BRANCH   1   7
HETATM    7  C   LIG     1      14.221  29.461  14.273  1.00  0.00     0.250 C 
HETATM    8  N   LIG     1      12.918  28.912  14.060  1.00  0.00    -0.366 N 
HETATM    9  H   LIG     1      12.797  28.092  13.426  1.00  0.00     0.159 HD
HETATM   10  H   LIG     1      12.085  29.249  14.591  1.00  0.00     0.159 HD
HETATM   11  O   LIG     1      15.215  28.887  13.752  1.00  0.00    -0.268 OA
ENDBRANCH   1   7
TORSDOF 1
ENDMDL
MODEL 14
REMARK VINA RESULT:      -5.1      9.808     10.755
REMARK  1 active torsions:
REMARK  status: ('A' for Active; 'I' for Inactive)
REMARK       I    between atoms: N_1  and  C_2 
REMARK    1  A    between atoms: C_2  and  C_3 
ROOT
HETATM    1  C   LIG     1      15.287  31.635  15.144  1.00  0.00     0.049 A 
HETATM    2  C   LIG     1      14.188  30.908  15.633  1.00  0.00     0.020 A 
HETATM    3  C   LIG     1      13.722  31.126  16.931  1.00  0.00     0.020 A 
HETATM    4  C   LIG     1      14.362  32.066  17.739  1.00  0.00     0.116 A 
HETATM    5  N   LIG     1      15.432  32.754  17.262  1.00  0.00    -0.272 NA
HETATM    6  C   LIG     1      15.905  32.564  16.002  1.00  0.00     0.133 A 
ENDROOT
BRANCH   1   7
HETATM    7  C   LIG     1      15.784  31.399  13.766  1.00  0.00     0.250 C 
HETATM    8  N   LIG     1      16.329  32.459  12.975  1.00  0.00    -0.366 N 
HETATM    9  H   LIG     1      16.723  32.253  12.031  1.00  0.00     0.159 HD
HETATM   10  H   LIG     1      16.266  33.457  13.273  1.00  0.00     0.159 HD
HETATM   11  O   LIG     1      15.715  30.243  13.269  1.00  0.00    -0.268 OA
ENDBRANCH   1   7
TORSDOF 1
ENDMDL
MODEL 15
REMARK VINA RESULT:      -5.1      3.264      4.489
REMARK  1 active torsions:
REMARK  status: ('A' for Active; 'I' for Inactive)
REMARK       I    between atoms: N_1  and  C_2 
REMARK    1  A    between atoms: C_2  and  C_3 
ROOT
HETATM    1  C   LIG     1      18.068  37.772  20.957  1.00  0.00     0.049 A 
HETATM    2  C   LIG     1      17.865  38.945  21.704  1.00  0.00     0.020 A 
HETATM    3  C   LIG     1      16.920  38.971  22.732  1.00  0.00     0.020 A 
HETATM    4  C   LIG     1      16.174  37.824  23.003  1.00  0.00     0.116 A 
HETATM    5  N   LIG     1      16.366  36.699  22.266  1.00  0.00    -0.272 NA
HETATM    6  C   LIG     1      17.282  36.645  21.262  1.00  0.00     0.133 A 
ENDROOT
BRANCH   1   7
HETATM    7  C   LIG     1      19.069  37.748  19.863  1.00  0.00     0.250 C 
HETATM    8  N   LIG     1      19.652  38.952  19.356  1.00  0.00    -0.366 N 
HETATM    9  H   LIG     1      20.397  38.902  18.627  1.00  0.00     0.159 HD
HETATM   10  H   LIG     1      19.295  39.894  19.628  1.00  0.00     0.159 HD
HETATM   11  O   LIG     1      19.411  36.647  19.354  1.00  0.00    -0.268 OA
ENDBRANCH   1   7
TORSDOF 1
ENDMDL
MODEL 16
REMARK VINA RESULT:      -4.9      1.831      1.962
REMARK  1 active torsions:
REMARK  status: ('A' for Active; 'I' for Inactive)
REMARK       I    between atoms: N_1  and  C_2 
REMARK    1  A    between atoms: C_2  and  C_3 
ROOT
HETATM    1  C   LIG     1      16.778  36.404  23.550  1.00  0.00     0.049 A 
HETATM    2  C   LIG     1      17.334  35.501  24.474  1.00  0.00     0.020 A 
HETATM    3  C   LIG     1      17.786  35.954  25.715  1.00  0.00     0.020 A 
HETATM    4  C   LIG     1      17.688  37.310  26.025  1.00  0.00     0.116 A 
HETATM    5  N   LIG     1      17.163  38.177  25.121  1.00  0.00    -0.272 NA
HETATM    6  C   LIG     1      16.712  37.763  23.906  1.00  0.00     0.133 A 
ENDROOT
BRANCH   1   7
HETATM    7  C   LIG     1      16.302  35.921  22.230  1.00  0.00     0.250 C 
HETATM    8  N   LIG     1      17.056  34.980  21.461  1.00  0.00    -0.366 N 
HETATM    9  H   LIG     1      16.669  34.614  20.564  1.00  0.00     0.159 HD
HETATM   10  H   LIG     1      18.030  34.709  21.722  1.00  0.00     0.159 HD
HETATM   11  O   LIG     1      15.215  36.356  21.763  1.00  0.00    -0.268 OA
ENDBRANCH   1   7
TORSDOF 1
ENDMDL
MODEL 17
REMARK VINA RESULT:      -4.9      9.662     10.909
REMARK  1 active torsions:
REMARK  status: ('A' for Active; 'I' for Inactive)
REMARK       I    between atoms: N_1  and  C_2 
REMARK    1  A    between atoms: C_2  and  C_3 
ROOT
HETATM    1  C   LIG     1      14.753  31.631  15.934  1.00  0.00     0.049 A 
HETATM    2  C   LIG     1      15.626  32.722  16.087  1.00  0.00     0.020 A 
HETATM    3  C   LIG     1      16.547  33.032  15.084  1.00  0.00     0.020 A 
HETATM    4  C   LIG     1      16.597  32.244  13.935  1.00  0.00     0.116 A 
HETATM    5  N   LIG     1      15.759  31.183  13.802  1.00  0.00    -0.272 NA
HETATM    6  C   LIG     1      14.850  30.860  14.761  1.00  0.00     0.133 A 
ENDROOT
BRANCH   1   7
HETATM    7  C   LIG     1      13.778  31.301  17.003  1.00  0.00     0.250 C 
HETATM    8  N   LIG     1      13.925  31.808  18.332  1.00  0.00    -0.366 N 
HETATM    9  H   LIG     1      13.193  31.607  19.048  1.00  0.00     0.159 HD
HETATM   10  H   LIG     1      14.790  32.303  18.641  1.00  0.00     0.159 HD
HETATM   11  O   LIG     1      12.802  30.546  16.744  1.00  0.00    -0.268 OA
ENDBRANCH   1   7
TORSDOF 1
ENDMDL
MODEL 18
REMARK VINA RESULT:      -4.8      2.957      3.828
REMARK  1 active torsions:
REMARK  status: ('A' for Active; 'I' for Inactive)
REMARK       I    between atoms: N_1  and  C_2 
REMARK    1  A    between atoms: C_2  and  C_3 
ROOT
HETATM    1  C   LIG     1      17.872  37.639  21.282  1.00  0.00     0.049 A 
HETATM    2  C   LIG     1      17.754  36.438  20.561  1.00  0.00     0.020 A 
HETATM    3  C   LIG     1      17.082  35.347  21.116  1.00  0.00     0.020 A 
HETATM    4  C   LIG     1      16.538  35.458  22.395  1.00  0.00     0.116 A 
HETATM    5  N   LIG     1      16.670  36.617  23.091  1.00  0.00    -0.272 NA
HETATM    6  C   LIG     1      17.315  37.697  22.573  1.00  0.00     0.133 A 
ENDROOT
BRANCH   1   7
HETATM    7  C   LIG     1      18.590  38.795  20.692  1.00  0.00     0.250 C 
HETATM    8  N   LIG     1      18.934  39.941  21.476  1.00  0.00    -0.366 N 
HETATM    9  H   LIG     1      19.490  40.715  21.049  1.00  0.00     0.159 HD
HETATM   10  H   LIG     1      18.571  40.076  22.445  1.00  0.00     0.159 HD
HETATM   11  O   LIG     1      18.896  38.781  19.470  1.00  0.00    -0.268 OA
ENDBRANCH   1   7
TORSDOF 1
ENDMDL
MODEL 19
REMARK VINA RESULT:      -4.7     10.727     11.521
REMARK  1 active torsions:
REMARK  status: ('A' for Active; 'I' for Inactive)
REMARK       I    between atoms: N_1  and  C_2 
REMARK    1  A    between atoms: C_2  and  C_3 
ROOT
HETATM    1  C   LIG     1      15.811  31.853  14.649  1.00  0.00     0.049 A 
HETATM    2  C   LIG     1      15.098  32.045  15.846  1.00  0.00     0.020 A 
HETATM    3  C   LIG     1      14.021  31.214  16.164  1.00  0.00     0.020 A 
HETATM    4  C   LIG     1      13.656  30.199  15.280  1.00  0.00     0.116 A 
HETATM    5  N   LIG     1      14.342  30.030  14.120  1.00  0.00    -0.272 NA
HETATM    6  C   LIG     1      15.396  30.822  13.786  1.00  0.00     0.133 A 
ENDROOT
BRANCH   1   7
HETATM    7  C   LIG     1      16.952  32.738  14.311  1.00  0.00     0.250 C 
HETATM    8  N   LIG     1      17.194  33.166  12.969  1.00  0.00    -0.366 N 
HETATM    9  H   LIG     1      17.970  33.836  12.769  1.00  0.00     0.159 HD
HETATM   10  H   LIG     1      16.676  32.761  12.159  1.00  0.00     0.159 HD
HETATM   11  O   LIG     1      17.738  33.117  15.221  1.00  0.00    -0.268 OA
ENDBRANCH   1   7
TORSDOF 1
ENDMDL
MODEL 20
REMARK VINA RESULT:      -4.7     10.122     11.200
REMARK  1 active torsions:
REMARK  status: ('A' for Active; 'I' for Inactive)
REMARK       I    between atoms: N_1  and  C_2 
REMARK    1  A    between atoms: C_2  and  C_3 
ROOT
HETATM    1  C   LIG     1      14.583  31.232  15.346  1.00  0.00     0.049 A 
HETATM    2  C   LIG     1      15.309  31.196  14.143  1.00  0.00     0.020 A 
HETATM    3  C   LIG     1      16.435  32.005  13.975  1.00  0.00     0.020 A 
HETATM    4  C   LIG     1      16.827  32.854  15.010  1.00  0.00     0.116 A 
HETATM    5  N   LIG     1      16.111  32.893  16.164  1.00  0.00    -0.272 NA
HETATM    6  C   LIG     1      15.013  32.114  16.355  1.00  0.00     0.133 A 
ENDROOT
BRANCH   1   7
HETATM    7  C   LIG     1      13.385  30.375  15.520  1.00  0.00     0.250 C 
HETATM    8  N   LIG     1      12.552  30.480  16.678  1.00  0.00    -0.366 N 
HETATM    9  H   LIG     1      11.683  29.905  16.747  1.00  0.00     0.159 HD
HETATM   10  H   LIG     1      12.828  31.052  17.506  1.00  0.00     0.159 HD
HETATM   11  O   LIG     1      13.096  29.522  14.638  1.00  0.00    -0.268 OA
ENDBRANCH   1   7
TORSDOF 1
ENDMDL
