REMARK  2 active torsions:
REMARK  status: ('A' for Active; 'I' for Inactive)
REMARK    1  A    between atoms: C_2  and  C_3 
REMARK    2  A    between atoms: C_2  and  O_10 
ROOT
HETATM    1  C   LIG     1       1.172   0.363  -0.268  1.00  0.00     0.038 A 
HETATM    2  C   LIG     1       0.244  -0.681  -0.094  1.00  0.00     0.025 A 
HETATM    3  C   LIG     1      -1.114  -0.401   0.130  1.00  0.00    -0.061 A 
HETATM    4  C   LIG     1      -2.089  -1.520   0.351  1.00  0.00     0.048 C 
HETATM    5  C   LIG     1      -1.542   0.932   0.207  1.00  0.00     0.007 A 
HETATM    6  C   LIG     1      -0.630   1.973   0.024  1.00  0.00     0.002 A 
HETATM    7  C   LIG     1       0.717   1.693  -0.219  1.00  0.00     0.018 A 
ENDROOT
BRANCH   1   8
HETATM    8  C   LIG     1       2.607   0.081  -0.519  1.00  0.00     0.176 C 
HETATM    9  O   LIG     1       3.325   0.950  -1.082  1.00  0.00    -0.646 OA
BRANCH   8  10
HETATM   10  O   LIG     1       3.198  -1.122  -0.135  1.00  0.00    -0.773 OA
HETATM   11  H   LIG     1       2.710  -1.819   0.413  1.00  0.00     0.167 HD
ENDBRANCH   8  10
ENDBRANCH   1   8
TORSDOF 2
