MODEL 1
REMARK VINA RESULT:      -6.7      0.000      0.000
REMARK  2 active torsions:
REMARK  status: ('A' for Active; 'I' for Inactive)
REMARK    1  A    between atoms: C_2  and  C_3 
REMARK    2  A    between atoms: C_5  and  N_6 
ROOT
HETATM    1  C   LIG     1      17.355  37.701  22.461  1.00  0.00     0.011 A 
HETATM    2  C   LIG     1      18.158  38.718  21.912  1.00  0.00     0.044 A 
HETATM    3  C   LIG     1      18.790  38.542  20.673  1.00  0.00     0.026 A 
HETATM    4  C   LIG     1      18.611  37.344  19.969  1.00  0.00     0.029 A 
HETATM    5  C   LIG     1      17.805  36.335  20.497  1.00  0.00     0.003 A 
HETATM    6  C   LIG     1      17.177  36.509  21.732  1.00  0.00     0.015 A 
ENDROOT
BRANCH   1   7
HETATM    7  C   LIG     1      16.689  37.911  23.769  1.00  0.00     0.155 C 
HETATM    8  C   LIG     1      17.455  37.997  25.057  1.00  0.00     0.096 C 
HETATM    9  O   LIG     1      15.436  38.036  23.814  1.00  0.00    -0.293 OA
ENDBRANCH   1   7
BRANCH   3  10
HETATM   10  N   LIG     1      19.611  39.579  20.129  1.00  0.00    -0.399 N 
HETATM   11  H   LIG     1      20.529  39.355  19.683  1.00  0.00     0.156 HD
HETATM   12  H   LIG     1      19.308  40.578  20.167  1.00  0.00     0.156 HD
ENDBRANCH   3  10
TORSDOF 2
ENDMDL
MODEL 2
REMARK VINA RESULT:      -6.4      2.992      4.323
REMARK  2 active torsions:
REMARK  status: ('A' for Active; 'I' for Inactive)
REMARK    1  A    between atoms: C_2  and  C_3 
REMARK    2  A    between atoms: C_5  and  N_6 
ROOT
HETATM    1  C   LIG     1      16.836  36.091  23.131  1.00  0.00     0.011 A 
HETATM    2  C   LIG     1      16.898  37.357  23.742  1.00  0.00     0.044 A 
HETATM    3  C   LIG     1      17.277  37.485  25.086  1.00  0.00     0.026 A 
HETATM    4  C   LIG     1      17.607  36.341  25.825  1.00  0.00     0.029 A 
HETATM    5  C   LIG     1      17.563  35.083  25.225  1.00  0.00     0.003 A 
HETATM    6  C   LIG     1      17.183  34.954  23.886  1.00  0.00     0.015 A 
ENDROOT
BRANCH   1   7
HETATM    7  C   LIG     1      16.440  35.978  21.706  1.00  0.00     0.155 C 
HETATM    8  C   LIG     1      15.027  35.704  21.284  1.00  0.00     0.096 C 
HETATM    9  O   LIG     1      17.311  36.127  20.807  1.00  0.00    -0.293 OA
ENDBRANCH   1   7
BRANCH   3  10
HETATM   10  N   LIG     1      17.329  38.776  25.700  1.00  0.00    -0.399 N 
HETATM   11  H   LIG     1      17.817  39.572  25.231  1.00  0.00     0.156 HD
HETATM   12  H   LIG     1      16.880  38.946  26.628  1.00  0.00     0.156 HD
ENDBRANCH   3  10
TORSDOF 2
ENDMDL
MODEL 3
REMARK VINA RESULT:      -6.3      2.134      2.999
REMARK  2 active torsions:
REMARK  status: ('A' for Active; 'I' for Inactive)
REMARK    1  A    between atoms: C_2  and  C_3 
REMARK    2  A    between atoms: C_5  and  N_6 
ROOT
HETATM    1  C   LIG     1      17.771  37.157  20.882  1.00  0.00     0.011 A 
HETATM    2  C   LIG     1      18.752  37.520  19.940  1.00  0.00     0.044 A 
HETATM    3  C   LIG     1      19.396  38.763  20.020  1.00  0.00     0.026 A 
HETATM    4  C   LIG     1      19.066  39.648  21.055  1.00  0.00     0.029 A 
HETATM    5  C   LIG     1      18.106  39.292  22.002  1.00  0.00     0.003 A 
HETATM    6  C   LIG     1      17.462  38.055  21.922  1.00  0.00     0.015 A 
ENDROOT
BRANCH   1   7
HETATM    7  C   LIG     1      17.107  35.834  20.783  1.00  0.00     0.155 C 
HETATM    8  C   LIG     1      16.848  34.974  21.985  1.00  0.00     0.096 C 
HETATM    9  O   LIG     1      16.732  35.411  19.657  1.00  0.00    -0.293 OA
ENDBRANCH   1   7
BRANCH   3  10
HETATM   10  N   LIG     1      20.385  39.126  19.052  1.00  0.00    -0.399 N 
HETATM   11  H   LIG     1      20.120  39.302  18.057  1.00  0.00     0.156 HD
HETATM   12  H   LIG     1      21.389  39.221  19.324  1.00  0.00     0.156 HD
ENDBRANCH   3  10
TORSDOF 2
ENDMDL
MODEL 4
REMARK VINA RESULT:      -6.3      2.830      4.223
REMARK  2 active torsions:
REMARK  status: ('A' for Active; 'I' for Inactive)
REMARK    1  A    between atoms: C_2  and  C_3 
REMARK    2  A    between atoms: C_5  and  N_6 
ROOT
HETATM    1  C   LIG     1      18.598  38.224  20.104  1.00  0.00     0.011 A 
HETATM    2  C   LIG     1      18.074  38.945  21.192  1.00  0.00     0.044 A 
HETATM    3  C   LIG     1      17.297  38.305  22.168  1.00  0.00     0.026 A 
HETATM    4  C   LIG     1      17.049  36.930  22.063  1.00  0.00     0.029 A 
HETATM    5  C   LIG     1      17.577  36.202  20.996  1.00  0.00     0.003 A 
HETATM    6  C   LIG     1      18.349  36.840  20.022  1.00  0.00     0.015 A 
ENDROOT
BRANCH   1   7
HETATM    7  C   LIG     1      19.425  38.919  19.086  1.00  0.00     0.155 C 
HETATM    8  C   LIG     1      18.929  39.189  17.696  1.00  0.00     0.096 C 
HETATM    9  O   LIG     1      20.582  39.312  19.392  1.00  0.00    -0.293 OA
ENDBRANCH   1   7
BRANCH   3  10
HETATM   10  N   LIG     1      16.762  39.050  23.266  1.00  0.00    -0.399 N 
HETATM   11  H   LIG     1      17.394  39.519  23.952  1.00  0.00     0.156 HD
HETATM   12  H   LIG     1      15.730  39.137  23.400  1.00  0.00     0.156 HD
ENDBRANCH   3  10
TORSDOF 2
ENDMDL
MODEL 5
REMARK VINA RESULT:      -6.3      2.662      3.250
REMARK  2 active torsions:
REMARK  status: ('A' for Active; 'I' for Inactive)
REMARK    1  A    between atoms: C_2  and  C_3 
REMARK    2  A    between atoms: C_5  and  N_6 
ROOT
HETATM    1  C   LIG     1      17.223  35.938  24.553  1.00  0.00     0.011 A 
HETATM    2  C   LIG     1      16.947  37.301  24.339  1.00  0.00     0.044 A 
HETATM    3  C   LIG     1      16.609  37.772  23.063  1.00  0.00     0.026 A 
HETATM    4  C   LIG     1      16.536  36.873  21.990  1.00  0.00     0.029 A 
HETATM    5  C   LIG     1      16.794  35.517  22.194  1.00  0.00     0.003 A 
HETATM    6  C   LIG     1      17.132  35.048  23.465  1.00  0.00     0.015 A 
ENDROOT
BRANCH   1   7
HETATM    7  C   LIG     1      17.571  35.459  25.913  1.00  0.00     0.155 C 
HETATM    8  C   LIG     1      18.517  36.202  26.809  1.00  0.00     0.096 C 
HETATM    9  O   LIG     1      17.050  34.397  26.348  1.00  0.00    -0.293 OA
ENDBRANCH   1   7
BRANCH   3  10
HETATM   10  N   LIG     1      16.338  39.161  22.855  1.00  0.00    -0.399 N 
HETATM   11  H   LIG     1      16.297  39.558  21.889  1.00  0.00     0.156 HD
HETATM   12  H   LIG     1      16.177  39.802  23.664  1.00  0.00     0.156 HD
ENDBRANCH   3  10
TORSDOF 2
ENDMDL
MODEL 6
REMARK VINA RESULT:      -6.2      1.369      2.079
REMARK  2 active torsions:
REMARK  status: ('A' for Active; 'I' for Inactive)
REMARK    1  A    between atoms: C_2  and  C_3 
REMARK    2  A    between atoms: C_5  and  N_6 
ROOT
HETATM    1  C   LIG     1      17.453  37.805  22.370  1.00  0.00     0.011 A 
HETATM    2  C   LIG     1      17.628  36.940  21.274  1.00  0.00     0.044 A 
HETATM    3  C   LIG     1      18.346  37.353  20.143  1.00  0.00     0.026 A 
HETATM    4  C   LIG     1      18.904  38.638  20.108  1.00  0.00     0.029 A 
HETATM    5  C   LIG     1      18.749  39.498  21.195  1.00  0.00     0.003 A 
HETATM    6  C   LIG     1      18.032  39.088  22.322  1.00  0.00     0.015 A 
ENDROOT
BRANCH   1   7
HETATM    7  C   LIG     1      16.696  37.345  23.560  1.00  0.00     0.155 C 
HETATM    8  C   LIG     1      17.110  36.146  24.361  1.00  0.00     0.096 C 
HETATM    9  O   LIG     1      15.674  37.983  23.929  1.00  0.00    -0.293 OA
ENDBRANCH   1   7
BRANCH   3  10
HETATM   10  N   LIG     1      18.511  36.468  19.031  1.00  0.00    -0.399 N 
HETATM   11  H   LIG     1      17.814  36.454  18.252  1.00  0.00     0.156 HD
HETATM   12  H   LIG     1      19.330  35.822  18.977  1.00  0.00     0.156 HD
ENDBRANCH   3  10
TORSDOF 2
ENDMDL
MODEL 7
REMARK VINA RESULT:      -6.1      2.358      2.935
REMARK  2 active torsions:
REMARK  status: ('A' for Active; 'I' for Inactive)
REMARK    1  A    between atoms: C_2  and  C_3 
REMARK    2  A    between atoms: C_5  and  N_6 
ROOT
HETATM    1  C   LIG     1      17.885  36.785  20.577  1.00  0.00     0.011 A 
HETATM    2  C   LIG     1      17.848  37.907  21.425  1.00  0.00     0.044 A 
HETATM    3  C   LIG     1      18.722  38.984  21.226  1.00  0.00     0.026 A 
HETATM    4  C   LIG     1      19.636  38.947  20.164  1.00  0.00     0.029 A 
HETATM    5  C   LIG     1      19.671  37.846  19.308  1.00  0.00     0.003 A 
HETATM    6  C   LIG     1      18.801  36.771  19.508  1.00  0.00     0.015 A 
ENDROOT
BRANCH   1   7
HETATM    7  C   LIG     1      16.945  35.659  20.801  1.00  0.00     0.155 C 
HETATM    8  C   LIG     1      16.649  35.120  22.170  1.00  0.00     0.096 C 
HETATM    9  O   LIG     1      16.358  35.136  19.816  1.00  0.00    -0.293 OA
ENDBRANCH   1   7
BRANCH   3  10
HETATM   10  N   LIG     1      18.683  40.117  22.099  1.00  0.00    -0.399 N 
HETATM   11  H   LIG     1      19.344  40.194  22.904  1.00  0.00     0.156 HD
HETATM   12  H   LIG     1      17.993  40.886  21.947  1.00  0.00     0.156 HD
ENDBRANCH   3  10
TORSDOF 2
ENDMDL
MODEL 8
REMARK VINA RESULT:      -6.0      2.977      4.545
REMARK  2 active torsions:
REMARK  status: ('A' for Active; 'I' for Inactive)
REMARK    1  A    between atoms: C_2  and  C_3 
REMARK    2  A    between atoms: C_5  and  N_6 
ROOT
HETATM    1  C   LIG     1      18.655  38.409  20.324  1.00  0.00     0.011 A 
HETATM    2  C   LIG     1      18.167  37.090  20.291  1.00  0.00     0.044 A 
HETATM    3  C   LIG     1      17.403  36.583  21.352  1.00  0.00     0.026 A 
HETATM    4  C   LIG     1      17.114  37.402  22.451  1.00  0.00     0.029 A 
HETATM    5  C   LIG     1      17.581  38.716  22.487  1.00  0.00     0.003 A 
HETATM    6  C   LIG     1      18.344  39.221  21.431  1.00  0.00     0.015 A 
ENDROOT
BRANCH   1   7
HETATM    7  C   LIG     1      19.455  38.929  19.188  1.00  0.00     0.155 C 
HETATM    8  C   LIG     1      18.882  39.096  17.811  1.00  0.00     0.096 C 
HETATM    9  O   LIG     1      20.657  39.256  19.375  1.00  0.00    -0.293 OA
ENDBRANCH   1   7
BRANCH   3  10
HETATM   10  N   LIG     1      16.918  35.237  21.312  1.00  0.00    -0.399 N 
HETATM   11  H   LIG     1      16.021  34.979  21.782  1.00  0.00     0.156 HD
HETATM   12  H   LIG     1      17.452  34.491  20.814  1.00  0.00     0.156 HD
ENDBRANCH   3  10
TORSDOF 2
ENDMDL
MODEL 9
REMARK VINA RESULT:      -5.9      3.386      4.753
REMARK  2 active torsions:
REMARK  status: ('A' for Active; 'I' for Inactive)
REMARK    1  A    between atoms: C_2  and  C_3 
REMARK    2  A    between atoms: C_5  and  N_6 
ROOT
HETATM    1  C   LIG     1      16.854  35.974  22.714  1.00  0.00     0.011 A 
HETATM    2  C   LIG     1      17.124  35.124  23.803  1.00  0.00     0.044 A 
HETATM    3  C   LIG     1      17.417  35.653  25.068  1.00  0.00     0.026 A 
HETATM    4  C   LIG     1      17.431  37.042  25.252  1.00  0.00     0.029 A 
HETATM    5  C   LIG     1      17.151  37.893  24.183  1.00  0.00     0.003 A 
HETATM    6  C   LIG     1      16.861  37.367  22.922  1.00  0.00     0.015 A 
ENDROOT
BRANCH   1   7
HETATM    7  C   LIG     1      16.539  35.394  21.386  1.00  0.00     0.155 C 
HETATM    8  C   LIG     1      15.414  34.422  21.180  1.00  0.00     0.096 C 
HETATM    9  O   LIG     1      17.225  35.731  20.384  1.00  0.00    -0.293 OA
ENDBRANCH   1   7
BRANCH   3  10
HETATM   10  N   LIG     1      17.698  34.781  26.167  1.00  0.00    -0.399 N 
HETATM   11  H   LIG     1      17.230  33.850  26.243  1.00  0.00     0.156 HD
HETATM   12  H   LIG     1      18.375  35.059  26.911  1.00  0.00     0.156 HD
ENDBRANCH   3  10
TORSDOF 2
ENDMDL
MODEL 10
REMARK VINA RESULT:      -5.8      8.394      9.520
REMARK  2 active torsions:
REMARK  status: ('A' for Active; 'I' for Inactive)
REMARK    1  A    between atoms: C_2  and  C_3 
REMARK    2  A    between atoms: C_5  and  N_6 
ROOT
HETATM    1  C   LIG     1      15.984  32.631  15.208  1.00  0.00     0.011 A 
HETATM    2  C   LIG     1      15.201  32.690  16.376  1.00  0.00     0.044 A 
HETATM    3  C   LIG     1      14.212  31.728  16.624  1.00  0.00     0.026 A 
HETATM    4  C   LIG     1      14.008  30.692  15.703  1.00  0.00     0.029 A 
HETATM    5  C   LIG     1      14.789  30.615  14.550  1.00  0.00     0.003 A 
HETATM    6  C   LIG     1      15.774  31.575  14.302  1.00  0.00     0.015 A 
ENDROOT
BRANCH   1   7
HETATM    7  C   LIG     1      17.031  33.655  14.969  1.00  0.00     0.155 C 
HETATM    8  C   LIG     1      18.158  33.441  14.002  1.00  0.00     0.096 C 
HETATM    9  O   LIG     1      16.976  34.753  15.585  1.00  0.00    -0.293 OA
ENDBRANCH   1   7
BRANCH   3  10
HETATM   10  N   LIG     1      13.415  31.802  17.810  1.00  0.00    -0.399 N 
HETATM   11  H   LIG     1      13.035  32.717  18.142  1.00  0.00     0.156 HD
HETATM   12  H   LIG     1      13.200  30.944  18.364  1.00  0.00     0.156 HD
ENDBRANCH   3  10
TORSDOF 2
ENDMDL
MODEL 11
REMARK VINA RESULT:      -5.8      2.641      3.697
REMARK  2 active torsions:
REMARK  status: ('A' for Active; 'I' for Inactive)
REMARK    1  A    between atoms: C_2  and  C_3 
REMARK    2  A    between atoms: C_5  and  N_6 
ROOT
HETATM    1  C   LIG     1      17.012  36.695  21.433  1.00  0.00     0.011 A 
HETATM    2  C   LIG     1      16.673  37.022  22.759  1.00  0.00     0.044 A 
HETATM    3  C   LIG     1      17.264  38.120  23.399  1.00  0.00     0.026 A 
HETATM    4  C   LIG     1      18.194  38.907  22.707  1.00  0.00     0.029 A 
HETATM    5  C   LIG     1      18.526  38.601  21.387  1.00  0.00     0.003 A 
HETATM    6  C   LIG     1      17.939  37.505  20.750  1.00  0.00     0.015 A 
ENDROOT
BRANCH   1   7
HETATM    7  C   LIG     1      16.369  35.534  20.771  1.00  0.00     0.155 C 
HETATM    8  C   LIG     1      15.481  34.577  21.512  1.00  0.00     0.096 C 
HETATM    9  O   LIG     1      16.557  35.338  19.541  1.00  0.00    -0.293 OA
ENDBRANCH   1   7
BRANCH   3  10
HETATM   10  N   LIG     1      16.918  38.438  24.751  1.00  0.00    -0.399 N 
HETATM   11  H   LIG     1      17.066  37.744  25.517  1.00  0.00     0.156 HD
HETATM   12  H   LIG     1      16.514  39.370  24.994  1.00  0.00     0.156 HD
ENDBRANCH   3  10
TORSDOF 2
ENDMDL
MODEL 12
REMARK VINA RESULT:      -5.7      2.619      3.151
REMARK  2 active torsions:
REMARK  status: ('A' for Active; 'I' for Inactive)
REMARK    1  A    between atoms: C_2  and  C_3 
REMARK    2  A    between atoms: C_5  and  N_6 
ROOT
HETATM    1  C   LIG     1      16.837  37.373  22.345  1.00  0.00     0.011 A 
HETATM    2  C   LIG     1      15.699  36.545  22.390  1.00  0.00     0.044 A 
HETATM    3  C   LIG     1      15.477  35.579  21.399  1.00  0.00     0.026 A 
HETATM    4  C   LIG     1      16.404  35.429  20.358  1.00  0.00     0.029 A 
HETATM    5  C   LIG     1      17.542  36.234  20.312  1.00  0.00     0.003 A 
HETATM    6  C   LIG     1      17.763  37.198  21.299  1.00  0.00     0.015 A 
ENDROOT
BRANCH   1   7
HETATM    7  C   LIG     1      17.056  38.384  23.408  1.00  0.00     0.155 C 
HETATM    8  C   LIG     1      17.866  38.094  24.638  1.00  0.00     0.096 C 
HETATM    9  O   LIG     1      16.560  39.535  23.281  1.00  0.00    -0.293 OA
ENDBRANCH   1   7
BRANCH   3  10
HETATM   10  N   LIG     1      14.313  34.749  21.449  1.00  0.00    -0.399 N 
HETATM   11  H   LIG     1      14.401  33.708  21.491  1.00  0.00     0.156 HD
HETATM   12  H   LIG     1      13.357  35.168  21.444  1.00  0.00     0.156 HD
ENDBRANCH   3  10
TORSDOF 2
ENDMDL
MODEL 13
REMARK VINA RESULT:      -5.7      2.653      3.292
REMARK  2 active torsions:
REMARK  status: ('A' for Active; 'I' for Inactive)
REMARK    1  A    between atoms: C_2  and  C_3 
REMARK    2  A    between atoms: C_5  and  N_6 
ROOT
HETATM    1  C   LIG     1      17.295  36.415  23.824  1.00  0.00     0.011 A 
HETATM    2  C   LIG     1      16.940  35.300  23.042  1.00  0.00     0.044 A 
HETATM    3  C   LIG     1      16.803  35.415  21.652  1.00  0.00     0.026 A 
HETATM    4  C   LIG     1      17.032  36.652  21.034  1.00  0.00     0.029 A 
HETATM    5  C   LIG     1      17.398  37.760  21.798  1.00  0.00     0.003 A 
HETATM    6  C   LIG     1      17.533  37.646  23.184  1.00  0.00     0.015 A 
ENDROOT
BRANCH   1   7
HETATM    7  C   LIG     1      17.442  36.270  25.293  1.00  0.00     0.155 C 
HETATM    8  C   LIG     1      17.537  34.930  25.963  1.00  0.00     0.096 C 
HETATM    9  O   LIG     1      17.503  37.301  26.015  1.00  0.00    -0.293 OA
ENDBRANCH   1   7
BRANCH   3  10
HETATM   10  N   LIG     1      16.434  34.277  20.867  1.00  0.00    -0.399 N 
HETATM   11  H   LIG     1      16.920  34.070  19.966  1.00  0.00     0.156 HD
HETATM   12  H   LIG     1      15.674  33.635  21.181  1.00  0.00     0.156 HD
ENDBRANCH   3  10
TORSDOF 2
ENDMDL
MODEL 14
REMARK VINA RESULT:      -5.7      8.922     10.571
REMARK  2 active torsions:
REMARK  status: ('A' for Active; 'I' for Inactive)
REMARK    1  A    between atoms: C_2  and  C_3 
REMARK    2  A    between atoms: C_5  and  N_6 
ROOT
HETATM    1  C   LIG     1      14.672  30.742  14.960  1.00  0.00     0.011 A 
HETATM    2  C   LIG     1      15.348  31.821  15.561  1.00  0.00     0.044 A 
HETATM    3  C   LIG     1      14.754  32.548  16.601  1.00  0.00     0.026 A 
HETATM    4  C   LIG     1      13.477  32.192  17.054  1.00  0.00     0.029 A 
HETATM    5  C   LIG     1      12.804  31.115  16.476  1.00  0.00     0.003 A 
HETATM    6  C   LIG     1      13.395  30.390  15.438  1.00  0.00     0.015 A 
ENDROOT
BRANCH   1   7
HETATM    7  C   LIG     1      15.322  29.980  13.867  1.00  0.00     0.155 C 
HETATM    8  C   LIG     1      15.239  28.485  13.768  1.00  0.00     0.096 C 
HETATM    9  O   LIG     1      15.961  30.599  12.974  1.00  0.00    -0.293 OA
ENDBRANCH   1   7
BRANCH   3  10
HETATM   10  N   LIG     1      15.446  33.648  17.198  1.00  0.00    -0.399 N 
HETATM   11  H   LIG     1      16.477  33.604  17.364  1.00  0.00     0.156 HD
HETATM   12  H   LIG     1      14.934  34.514  17.480  1.00  0.00     0.156 HD
ENDBRANCH   3  10
TORSDOF 2
ENDMDL
MODEL 15
REMARK VINA RESULT:      -5.7      8.773      9.911
REMARK  2 active torsions:
REMARK  status: ('A' for Active; 'I' for Inactive)
REMARK    1  A    between atoms: C_2  and  C_3 
REMARK    2  A    between atoms: C_5  and  N_6 
ROOT
HETATM    1  C   LIG     1      15.390  32.349  15.652  1.00  0.00     0.011 A 
HETATM    2  C   LIG     1      15.269  31.297  14.725  1.00  0.00     0.044 A 
HETATM    3  C   LIG     1      14.235  30.358  14.840  1.00  0.00     0.026 A 
HETATM    4  C   LIG     1      13.306  30.474  15.882  1.00  0.00     0.029 A 
HETATM    5  C   LIG     1      13.407  31.522  16.797  1.00  0.00     0.003 A 
HETATM    6  C   LIG     1      14.439  32.457  16.685  1.00  0.00     0.015 A 
ENDROOT
BRANCH   1   7
HETATM    7  C   LIG     1      16.487  33.337  15.508  1.00  0.00     0.155 C 
HETATM    8  C   LIG     1      17.764  33.021  14.787  1.00  0.00     0.096 C 
HETATM    9  O   LIG     1      16.349  34.492  15.995  1.00  0.00    -0.293 OA
ENDBRANCH   1   7
BRANCH   3  10
HETATM   10  N   LIG     1      14.127  29.287  13.897  1.00  0.00    -0.399 N 
HETATM   11  H   LIG     1      13.702  28.373  14.174  1.00  0.00     0.156 HD
HETATM   12  H   LIG     1      14.469  29.399  12.917  1.00  0.00     0.156 HD
ENDBRANCH   3  10
TORSDOF 2
ENDMDL
MODEL 16
REMARK VINA RESULT:      -5.5      8.348      9.677
REMARK  2 active torsions:
REMARK  status: ('A' for Active; 'I' for Inactive)
REMARK    1  A    between atoms: C_2  and  C_3 
REMARK    2  A    between atoms: C_5  and  N_6 
ROOT
HETATM    1  C   LIG     1      15.002  31.983  16.187  1.00  0.00     0.011 A 
HETATM    2  C   LIG     1      13.995  31.014  16.017  1.00  0.00     0.044 A 
HETATM    3  C   LIG     1      13.914  30.266  14.834  1.00  0.00     0.026 A 
HETATM    4  C   LIG     1      14.852  30.478  13.815  1.00  0.00     0.029 A 
HETATM    5  C   LIG     1      15.864  31.425  13.979  1.00  0.00     0.003 A 
HETATM    6  C   LIG     1      15.943  32.172  15.157  1.00  0.00     0.015 A 
ENDROOT
BRANCH   1   7
HETATM    7  C   LIG     1      15.075  32.758  17.449  1.00  0.00     0.155 C 
HETATM    8  C   LIG     1      14.857  32.127  18.794  1.00  0.00     0.096 C 
HETATM    9  O   LIG     1      15.340  33.989  17.406  1.00  0.00    -0.293 OA
ENDBRANCH   1   7
BRANCH   3  10
HETATM   10  N   LIG     1      12.882  29.290  14.668  1.00  0.00    -0.399 N 
HETATM   11  H   LIG     1      13.024  28.462  14.046  1.00  0.00     0.156 HD
HETATM   12  H   LIG     1      11.968  29.387  15.165  1.00  0.00     0.156 HD
ENDBRANCH   3  10
TORSDOF 2
ENDMDL
MODEL 17
REMARK VINA RESULT:      -5.5      9.342     10.992
REMARK  2 active torsions:
REMARK  status: ('A' for Active; 'I' for Inactive)
REMARK    1  A    between atoms: C_2  and  C_3 
REMARK    2  A    between atoms: C_5  and  N_6 
ROOT
HETATM    1  C   LIG     1      14.586  30.236  14.818  1.00  0.00     0.011 A 
HETATM    2  C   LIG     1      13.933  30.623  16.004  1.00  0.00     0.044 A 
HETATM    3  C   LIG     1      14.290  31.807  16.663  1.00  0.00     0.026 A 
HETATM    4  C   LIG     1      15.300  32.620  16.130  1.00  0.00     0.029 A 
HETATM    5  C   LIG     1      15.943  32.253  14.948  1.00  0.00     0.003 A 
HETATM    6  C   LIG     1      15.589  31.071  14.291  1.00  0.00     0.015 A 
ENDROOT
BRANCH   1   7
HETATM    7  C   LIG     1      14.188  28.982  14.132  1.00  0.00     0.155 C 
HETATM    8  C   LIG     1      15.193  28.006  13.596  1.00  0.00     0.096 C 
HETATM    9  O   LIG     1      12.965  28.710  13.999  1.00  0.00    -0.293 OA
ENDBRANCH   1   7
BRANCH   3  10
HETATM   10  N   LIG     1      13.626  32.188  17.872  1.00  0.00    -0.399 N 
HETATM   11  H   LIG     1      13.121  31.478  18.450  1.00  0.00     0.156 HD
HETATM   12  H   LIG     1      13.635  33.179  18.198  1.00  0.00     0.156 HD
ENDBRANCH   3  10
TORSDOF 2
ENDMDL
MODEL 18
REMARK VINA RESULT:      -5.5      7.722      9.002
REMARK  2 active torsions:
REMARK  status: ('A' for Active; 'I' for Inactive)
REMARK    1  A    between atoms: C_2  and  C_3 
REMARK    2  A    between atoms: C_5  and  N_6 
ROOT
HETATM    1  C   LIG     1      15.127  32.151  16.252  1.00  0.00     0.011 A 
HETATM    2  C   LIG     1      15.943  32.643  15.217  1.00  0.00     0.044 A 
HETATM    3  C   LIG     1      15.979  32.005  13.969  1.00  0.00     0.026 A 
HETATM    4  C   LIG     1      15.186  30.871  13.748  1.00  0.00     0.029 A 
HETATM    5  C   LIG     1      14.363  30.383  14.763  1.00  0.00     0.003 A 
HETATM    6  C   LIG     1      14.328  31.018  16.007  1.00  0.00     0.015 A 
ENDROOT
BRANCH   1   7
HETATM    7  C   LIG     1      15.098  32.846  17.562  1.00  0.00     0.155 C 
HETATM    8  C   LIG     1      14.851  32.120  18.852  1.00  0.00     0.096 C 
HETATM    9  O   LIG     1      15.298  34.089  17.609  1.00  0.00    -0.293 OA
ENDBRANCH   1   7
BRANCH   3  10
HETATM   10  N   LIG     1      16.818  32.509  12.925  1.00  0.00    -0.399 N 
HETATM   11  H   LIG     1      16.549  33.364  12.389  1.00  0.00     0.156 HD
HETATM   12  H   LIG     1      17.714  32.031  12.681  1.00  0.00     0.156 HD
ENDBRANCH   3  10
TORSDOF 2
ENDMDL
MODEL 19
REMARK VINA RESULT:      -5.3      8.235      9.505
REMARK  2 active torsions:
REMARK  status: ('A' for Active; 'I' for Inactive)
REMARK    1  A    between atoms: C_2  and  C_3 
REMARK    2  A    between atoms: C_5  and  N_6 
ROOT
HETATM    1  C   LIG     1      14.516  31.433  15.873  1.00  0.00     0.011 A 
HETATM    2  C   LIG     1      15.504  32.344  15.455  1.00  0.00     0.044 A 
HETATM    3  C   LIG     1      16.165  32.170  14.231  1.00  0.00     0.026 A 
HETATM    4  C   LIG     1      15.831  31.083  13.412  1.00  0.00     0.029 A 
HETATM    5  C   LIG     1      14.843  30.183  13.810  1.00  0.00     0.003 A 
HETATM    6  C   LIG     1      14.185  30.355  15.031  1.00  0.00     0.015 A 
ENDROOT
BRANCH   1   7
HETATM    7  C   LIG     1      13.822  31.641  17.168  1.00  0.00     0.155 C 
HETATM    8  C   LIG     1      14.565  31.917  18.442  1.00  0.00     0.096 C 
HETATM    9  O   LIG     1      12.564  31.597  17.211  1.00  0.00    -0.293 OA
ENDBRANCH   1   7
BRANCH   3  10
HETATM   10  N   LIG     1      17.174  33.096  13.818  1.00  0.00    -0.399 N 
HETATM   11  H   LIG     1      17.978  32.783  13.229  1.00  0.00     0.156 HD
HETATM   12  H   LIG     1      17.125  34.101  14.099  1.00  0.00     0.156 HD
ENDBRANCH   3  10
TORSDOF 2
ENDMDL
MODEL 20
REMARK VINA RESULT:      -5.1      9.178     10.783
REMARK  2 active torsions:
REMARK  status: ('A' for Active; 'I' for Inactive)
REMARK    1  A    between atoms: C_2  and  C_3 
REMARK    2  A    between atoms: C_5  and  N_6 
ROOT
HETATM    1  C   LIG     1      15.025  30.701  14.494  1.00  0.00     0.011 A 
HETATM    2  C   LIG     1      15.850  31.315  13.533  1.00  0.00     0.044 A 
HETATM    3  C   LIG     1      16.491  32.530  13.810  1.00  0.00     0.026 A 
HETATM    4  C   LIG     1      16.316  33.135  15.062  1.00  0.00     0.029 A 
HETATM    5  C   LIG     1      15.512  32.529  16.027  1.00  0.00     0.003 A 
HETATM    6  C   LIG     1      14.872  31.318  15.750  1.00  0.00     0.015 A 
ENDROOT
BRANCH   1   7
HETATM    7  C   LIG     1      14.363  29.411  14.183  1.00  0.00     0.155 C 
HETATM    8  C   LIG     1      15.126  28.211  13.704  1.00  0.00     0.096 C 
HETATM    9  O   LIG     1      13.116  29.302  14.334  1.00  0.00    -0.293 OA
ENDBRANCH   1   7
BRANCH   3  10
HETATM   10  N   LIG     1      17.321  33.150  12.823  1.00  0.00    -0.399 N 
HETATM   11  H   LIG     1      17.005  33.224  11.830  1.00  0.00     0.156 HD
HETATM   12  H   LIG     1      18.256  33.539  13.078  1.00  0.00     0.156 HD
ENDBRANCH   3  10
TORSDOF 2
ENDMDL
