MODEL 1
REMARK VINA RESULT:      -6.8      0.000      0.000
REMARK  2 active torsions:
REMARK  status: ('A' for Active; 'I' for Inactive)
REMARK    1  A    between atoms: C_2  and  C_3 
REMARK    2  A    between atoms: C_2  and  O_10 
ROOT
HETATM    1  C   LIG     1      17.103  37.690  22.274  1.00  0.00     0.038 A 
HETATM    2  C   LIG     1      18.034  38.562  21.678  1.00  0.00     0.025 A 
HETATM    3  C   LIG     1      18.737  38.177  20.525  1.00  0.00    -0.061 A 
HETATM    4  C   LIG     1      19.755  39.099  19.919  1.00  0.00     0.048 C 
HETATM    5  C   LIG     1      18.527  36.903  19.979  1.00  0.00     0.007 A 
HETATM    6  C   LIG     1      17.596  36.037  20.557  1.00  0.00     0.002 A 
HETATM    7  C   LIG     1      16.883  36.429  21.692  1.00  0.00     0.018 A 
ENDROOT
BRANCH   1   8
HETATM    8  C   LIG     1      16.343  38.089  23.485  1.00  0.00     0.176 C 
HETATM    9  O   LIG     1      16.964  38.458  24.518  1.00  0.00    -0.646 OA
BRANCH   8  10
HETATM   10  O   LIG     1      14.949  38.083  23.513  1.00  0.00    -0.773 OA
HETATM   11  H   LIG     1      14.386  38.234  22.686  1.00  0.00     0.167 HD
ENDBRANCH   8  10
ENDBRANCH   1   8
TORSDOF 2
ENDMDL
MODEL 2
REMARK VINA RESULT:      -6.5      3.262      4.345
REMARK  2 active torsions:
REMARK  status: ('A' for Active; 'I' for Inactive)
REMARK    1  A    between atoms: C_2  and  C_3 
REMARK    2  A    between atoms: C_2  and  O_10 
ROOT
HETATM    1  C   LIG     1      18.844  38.377  19.770  1.00  0.00     0.038 A 
HETATM    2  C   LIG     1      18.317  39.030  20.900  1.00  0.00     0.025 A 
HETATM    3  C   LIG     1      17.568  38.319  21.852  1.00  0.00    -0.061 A 
HETATM    4  C   LIG     1      16.978  39.031  23.033  1.00  0.00     0.048 C 
HETATM    5  C   LIG     1      17.323  36.952  21.659  1.00  0.00     0.007 A 
HETATM    6  C   LIG     1      17.852  36.295  20.547  1.00  0.00     0.002 A 
HETATM    7  C   LIG     1      18.614  36.999  19.611  1.00  0.00     0.018 A 
ENDROOT
BRANCH   1   8
HETATM    8  C   LIG     1      19.649  39.113  18.764  1.00  0.00     0.176 C 
HETATM    9  O   LIG     1      19.111  39.491  17.689  1.00  0.00    -0.646 OA
BRANCH   8  10
HETATM   10  O   LIG     1      20.993  39.417  18.976  1.00  0.00    -0.773 OA
HETATM   11  H   LIG     1      21.302  40.034  19.717  1.00  0.00     0.167 HD
ENDBRANCH   8  10
ENDBRANCH   1   8
TORSDOF 2
ENDMDL
MODEL 3
REMARK VINA RESULT:      -6.5      3.156      4.541
REMARK  2 active torsions:
REMARK  status: ('A' for Active; 'I' for Inactive)
REMARK    1  A    between atoms: C_2  and  C_3 
REMARK    2  A    between atoms: C_2  and  O_10 
ROOT
HETATM    1  C   LIG     1      18.720  38.471  20.183  1.00  0.00     0.038 A 
HETATM    2  C   LIG     1      18.202  37.165  20.260  1.00  0.00     0.025 A 
HETATM    3  C   LIG     1      17.475  36.749  21.388  1.00  0.00    -0.061 A 
HETATM    4  C   LIG     1      16.959  35.343  21.477  1.00  0.00     0.048 C 
HETATM    5  C   LIG     1      17.288  37.637  22.456  1.00  0.00     0.007 A 
HETATM    6  C   LIG     1      17.788  38.938  22.382  1.00  0.00     0.002 A 
HETATM    7  C   LIG     1      18.494  39.357  21.251  1.00  0.00     0.018 A 
ENDROOT
BRANCH   1   8
HETATM    8  C   LIG     1      19.478  38.928  18.991  1.00  0.00     0.176 C 
HETATM    9  O   LIG     1      18.918  38.940  17.863  1.00  0.00    -0.646 OA
BRANCH   8  10
HETATM   10  O   LIG     1      20.799  39.362  19.083  1.00  0.00    -0.773 OA
HETATM   11  H   LIG     1      21.454  39.283  18.315  1.00  0.00     0.167 HD
ENDBRANCH   8  10
ENDBRANCH   1   8
TORSDOF 2
ENDMDL
MODEL 4
REMARK VINA RESULT:      -6.4      2.898      4.466
REMARK  2 active torsions:
REMARK  status: ('A' for Active; 'I' for Inactive)
REMARK    1  A    between atoms: C_2  and  C_3 
REMARK    2  A    between atoms: C_2  and  O_10 
ROOT
HETATM    1  C   LIG     1      16.669  36.249  22.696  1.00  0.00     0.038 A 
HETATM    2  C   LIG     1      16.995  35.344  23.723  1.00  0.00     0.025 A 
HETATM    3  C   LIG     1      17.457  35.808  24.965  1.00  0.00    -0.061 A 
HETATM    4  C   LIG     1      17.837  34.834  26.041  1.00  0.00     0.048 C 
HETATM    5  C   LIG     1      17.619  37.185  25.173  1.00  0.00     0.007 A 
HETATM    6  C   LIG     1      17.287  38.090  24.163  1.00  0.00     0.002 A 
HETATM    7  C   LIG     1      16.808  37.628  22.934  1.00  0.00     0.018 A 
ENDROOT
BRANCH   1   8
HETATM    8  C   LIG     1      16.167  35.773  21.383  1.00  0.00     0.176 C 
HETATM    9  O   LIG     1      16.981  35.541  20.450  1.00  0.00    -0.646 OA
BRANCH   8  10
HETATM   10  O   LIG     1      14.809  35.558  21.149  1.00  0.00    -0.773 OA
HETATM   11  H   LIG     1      14.470  34.831  20.532  1.00  0.00     0.167 HD
ENDBRANCH   8  10
ENDBRANCH   1   8
TORSDOF 2
ENDMDL
MODEL 5
REMARK VINA RESULT:      -6.3      7.521      8.955
REMARK  2 active torsions:
REMARK  status: ('A' for Active; 'I' for Inactive)
REMARK    1  A    between atoms: C_2  and  C_3 
REMARK    2  A    between atoms: C_2  and  O_10 
ROOT
HETATM    1  C   LIG     1      14.709  32.557  16.424  1.00  0.00     0.038 A 
HETATM    2  C   LIG     1      15.311  31.879  15.347  1.00  0.00     0.025 A 
HETATM    3  C   LIG     1      14.706  30.740  14.790  1.00  0.00    -0.061 A 
HETATM    4  C   LIG     1      15.375  30.003  13.667  1.00  0.00     0.048 C 
HETATM    5  C   LIG     1      13.505  30.261  15.331  1.00  0.00     0.007 A 
HETATM    6  C   LIG     1      12.895  30.934  16.391  1.00  0.00     0.002 A 
HETATM    7  C   LIG     1      13.487  32.078  16.931  1.00  0.00     0.018 A 
ENDROOT
BRANCH   1   8
HETATM    8  C   LIG     1      15.330  33.769  17.012  1.00  0.00     0.176 C 
HETATM    9  O   LIG     1      15.940  34.582  16.268  1.00  0.00    -0.646 OA
BRANCH   8  10
HETATM   10  O   LIG     1      15.248  34.049  18.376  1.00  0.00    -0.773 OA
HETATM   11  H   LIG     1      14.598  34.725  18.756  1.00  0.00     0.167 HD
ENDBRANCH   8  10
ENDBRANCH   1   8
TORSDOF 2
ENDMDL
MODEL 6
REMARK VINA RESULT:      -6.2      2.332      3.186
REMARK  2 active torsions:
REMARK  status: ('A' for Active; 'I' for Inactive)
REMARK    1  A    between atoms: C_2  and  C_3 
REMARK    2  A    between atoms: C_2  and  O_10 
ROOT
HETATM    1  C   LIG     1      16.447  35.970  21.209  1.00  0.00     0.038 A 
HETATM    2  C   LIG     1      17.525  36.239  20.344  1.00  0.00     0.025 A 
HETATM    3  C   LIG     1      18.313  37.388  20.520  1.00  0.00    -0.061 A 
HETATM    4  C   LIG     1      19.437  37.685  19.571  1.00  0.00     0.048 C 
HETATM    5  C   LIG     1      18.005  38.288  21.550  1.00  0.00     0.007 A 
HETATM    6  C   LIG     1      16.945  38.022  22.419  1.00  0.00     0.002 A 
HETATM    7  C   LIG     1      16.174  36.868  22.256  1.00  0.00     0.018 A 
ENDROOT
BRANCH   1   8
HETATM    8  C   LIG     1      15.615  34.752  21.043  1.00  0.00     0.176 C 
HETATM    9  O   LIG     1      16.089  33.749  20.447  1.00  0.00    -0.646 OA
BRANCH   8  10
HETATM   10  O   LIG     1      14.316  34.676  21.545  1.00  0.00    -0.773 OA
HETATM   11  H   LIG     1      13.521  34.436  20.966  1.00  0.00     0.167 HD
ENDBRANCH   8  10
ENDBRANCH   1   8
TORSDOF 2
ENDMDL
MODEL 7
REMARK VINA RESULT:      -6.0      7.926      9.453
REMARK  2 active torsions:
REMARK  status: ('A' for Active; 'I' for Inactive)
REMARK    1  A    between atoms: C_2  and  C_3 
REMARK    2  A    between atoms: C_2  and  O_10 
ROOT
HETATM    1  C   LIG     1      14.874  31.877  16.237  1.00  0.00     0.038 A 
HETATM    2  C   LIG     1      14.063  30.785  15.872  1.00  0.00     0.025 A 
HETATM    3  C   LIG     1      14.205  30.178  14.613  1.00  0.00    -0.061 A 
HETATM    4  C   LIG     1      13.311  29.038  14.220  1.00  0.00     0.048 C 
HETATM    5  C   LIG     1      15.145  30.682  13.704  1.00  0.00     0.007 A 
HETATM    6  C   LIG     1      15.961  31.757  14.062  1.00  0.00     0.002 A 
HETATM    7  C   LIG     1      15.833  32.347  15.322  1.00  0.00     0.018 A 
ENDROOT
BRANCH   1   8
HETATM    8  C   LIG     1      14.744  32.519  17.568  1.00  0.00     0.176 C 
HETATM    9  O   LIG     1      15.348  33.599  17.802  1.00  0.00    -0.646 OA
BRANCH   8  10
HETATM   10  O   LIG     1      13.955  31.967  18.576  1.00  0.00    -0.773 OA
HETATM   11  H   LIG     1      13.528  32.528  19.303  1.00  0.00     0.167 HD
ENDBRANCH   8  10
ENDBRANCH   1   8
TORSDOF 2
ENDMDL
MODEL 8
REMARK VINA RESULT:      -5.9      8.458     10.017
REMARK  2 active torsions:
REMARK  status: ('A' for Active; 'I' for Inactive)
REMARK    1  A    between atoms: C_2  and  C_3 
REMARK    2  A    between atoms: C_2  and  O_10 
ROOT
HETATM    1  C   LIG     1      15.672  32.058  15.233  1.00  0.00     0.038 A 
HETATM    2  C   LIG     1      15.086  30.977  14.547  1.00  0.00     0.025 A 
HETATM    3  C   LIG     1      13.931  30.354  15.048  1.00  0.00    -0.061 A 
HETATM    4  C   LIG     1      13.335  29.179  14.329  1.00  0.00     0.048 C 
HETATM    5  C   LIG     1      13.374  30.797  16.255  1.00  0.00     0.007 A 
HETATM    6  C   LIG     1      13.942  31.876  16.936  1.00  0.00     0.002 A 
HETATM    7  C   LIG     1      15.079  32.508  16.426  1.00  0.00     0.018 A 
ENDROOT
BRANCH   1   8
HETATM    8  C   LIG     1      16.884  32.734  14.708  1.00  0.00     0.176 C 
HETATM    9  O   LIG     1      17.996  32.546  15.269  1.00  0.00    -0.646 OA
BRANCH   8  10
HETATM   10  O   LIG     1      16.835  33.569  13.592  1.00  0.00    -0.773 OA
HETATM   11  H   LIG     1      17.242  33.313  12.702  1.00  0.00     0.167 HD
ENDBRANCH   8  10
ENDBRANCH   1   8
TORSDOF 2
ENDMDL
MODEL 9
REMARK VINA RESULT:      -5.9      8.433      9.231
REMARK  2 active torsions:
REMARK  status: ('A' for Active; 'I' for Inactive)
REMARK    1  A    between atoms: C_2  and  C_3 
REMARK    2  A    between atoms: C_2  and  O_10 
ROOT
HETATM    1  C   LIG     1      14.358  31.421  15.977  1.00  0.00     0.038 A 
HETATM    2  C   LIG     1      15.394  32.309  15.629  1.00  0.00     0.025 A 
HETATM    3  C   LIG     1      16.105  32.143  14.430  1.00  0.00    -0.061 A 
HETATM    4  C   LIG     1      17.232  33.072  14.086  1.00  0.00     0.048 C 
HETATM    5  C   LIG     1      15.796  31.068  13.584  1.00  0.00     0.007 A 
HETATM    6  C   LIG     1      14.762  30.191  13.916  1.00  0.00     0.002 A 
HETATM    7  C   LIG     1      14.041  30.368  15.100  1.00  0.00     0.018 A 
ENDROOT
BRANCH   1   8
HETATM    8  C   LIG     1      13.589  31.593  17.234  1.00  0.00     0.176 C 
HETATM    9  O   LIG     1      14.118  31.284  18.336  1.00  0.00    -0.646 OA
BRANCH   8  10
HETATM   10  O   LIG     1      12.292  32.103  17.240  1.00  0.00    -0.773 OA
HETATM   11  H   LIG     1      12.095  33.094  17.168  1.00  0.00     0.167 HD
ENDBRANCH   8  10
ENDBRANCH   1   8
TORSDOF 2
ENDMDL
MODEL 10
REMARK VINA RESULT:      -5.9      9.422     10.609
REMARK  2 active torsions:
REMARK  status: ('A' for Active; 'I' for Inactive)
REMARK    1  A    between atoms: C_2  and  C_3 
REMARK    2  A    between atoms: C_2  and  O_10 
ROOT
HETATM    1  C   LIG     1      14.174  30.275  14.960  1.00  0.00     0.038 A 
HETATM    2  C   LIG     1      15.328  31.009  14.629  1.00  0.00     0.025 A 
HETATM    3  C   LIG     1      15.703  32.132  15.385  1.00  0.00    -0.061 A 
HETATM    4  C   LIG     1      16.914  32.930  15.002  1.00  0.00     0.048 C 
HETATM    5  C   LIG     1      14.902  32.540  16.461  1.00  0.00     0.007 A 
HETATM    6  C   LIG     1      13.762  31.810  16.803  1.00  0.00     0.002 A 
HETATM    7  C   LIG     1      13.402  30.681  16.064  1.00  0.00     0.018 A 
ENDROOT
BRANCH   1   8
HETATM    8  C   LIG     1      13.775  29.078  14.179  1.00  0.00     0.176 C 
HETATM    9  O   LIG     1      14.653  28.257  13.802  1.00  0.00    -0.646 OA
BRANCH   8  10
HETATM   10  O   LIG     1      12.443  28.820  13.858  1.00  0.00    -0.773 OA
HETATM   11  H   LIG     1      11.671  29.290  14.314  1.00  0.00     0.167 HD
ENDBRANCH   8  10
ENDBRANCH   1   8
TORSDOF 2
ENDMDL
MODEL 11
REMARK VINA RESULT:      -5.8      8.852     10.108
REMARK  2 active torsions:
REMARK  status: ('A' for Active; 'I' for Inactive)
REMARK    1  A    between atoms: C_2  and  C_3 
REMARK    2  A    between atoms: C_2  and  O_10 
ROOT
HETATM    1  C   LIG     1      16.030  32.097  14.295  1.00  0.00     0.038 A 
HETATM    2  C   LIG     1      15.484  32.332  15.571  1.00  0.00     0.025 A 
HETATM    3  C   LIG     1      14.499  31.479  16.095  1.00  0.00    -0.061 A 
HETATM    4  C   LIG     1      13.896  31.760  17.440  1.00  0.00     0.048 C 
HETATM    5  C   LIG     1      14.039  30.400  15.328  1.00  0.00     0.007 A 
HETATM    6  C   LIG     1      14.584  30.153  14.067  1.00  0.00     0.002 A 
HETATM    7  C   LIG     1      15.578  30.990  13.554  1.00  0.00     0.018 A 
ENDROOT
BRANCH   1   8
HETATM    8  C   LIG     1      17.081  32.982  13.734  1.00  0.00     0.176 C 
HETATM    9  O   LIG     1      18.225  33.005  14.262  1.00  0.00    -0.646 OA
BRANCH   8  10
HETATM   10  O   LIG     1      16.847  33.787  12.621  1.00  0.00    -0.773 OA
HETATM   11  H   LIG     1      15.926  33.910  12.220  1.00  0.00     0.167 HD
ENDBRANCH   8  10
ENDBRANCH   1   8
TORSDOF 2
ENDMDL
MODEL 12
REMARK VINA RESULT:      -5.7      9.751     11.224
REMARK  2 active torsions:
REMARK  status: ('A' for Active; 'I' for Inactive)
REMARK    1  A    between atoms: C_2  and  C_3 
REMARK    2  A    between atoms: C_2  and  O_10 
ROOT
HETATM    1  C   LIG     1      14.218  29.868  14.432  1.00  0.00     0.038 A 
HETATM    2  C   LIG     1      13.864  30.438  15.669  1.00  0.00     0.025 A 
HETATM    3  C   LIG     1      14.497  31.606  16.126  1.00  0.00    -0.061 A 
HETATM    4  C   LIG     1      14.139  32.185  17.463  1.00  0.00     0.048 C 
HETATM    5  C   LIG     1      15.509  32.192  15.352  1.00  0.00     0.007 A 
HETATM    6  C   LIG     1      15.858  31.639  14.118  1.00  0.00     0.002 A 
HETATM    7  C   LIG     1      15.213  30.489  13.656  1.00  0.00     0.018 A 
ENDROOT
BRANCH   1   8
HETATM    8  C   LIG     1      13.548  28.642  13.932  1.00  0.00     0.176 C 
HETATM    9  O   LIG     1      14.223  27.596  13.738  1.00  0.00    -0.646 OA
BRANCH   8  10
HETATM   10  O   LIG     1      12.177  28.604  13.680  1.00  0.00    -0.773 OA
HETATM   11  H   LIG     1      11.793  28.293  12.797  1.00  0.00     0.167 HD
ENDBRANCH   8  10
ENDBRANCH   1   8
TORSDOF 2
ENDMDL
MODEL 13
REMARK VINA RESULT:      -5.5      8.510      9.919
REMARK  2 active torsions:
REMARK  status: ('A' for Active; 'I' for Inactive)
REMARK    1  A    between atoms: C_2  and  C_3 
REMARK    2  A    between atoms: C_2  and  O_10 
ROOT
HETATM    1  C   LIG     1      15.138  31.409  14.875  1.00  0.00     0.038 A 
HETATM    2  C   LIG     1      15.493  32.566  15.593  1.00  0.00     0.025 A 
HETATM    3  C   LIG     1      14.838  32.894  16.792  1.00  0.00    -0.061 A 
HETATM    4  C   LIG     1      15.199  34.149  17.530  1.00  0.00     0.048 C 
HETATM    5  C   LIG     1      13.803  32.073  17.261  1.00  0.00     0.007 A 
HETATM    6  C   LIG     1      13.452  30.917  16.561  1.00  0.00     0.002 A 
HETATM    7  C   LIG     1      14.118  30.581  15.380  1.00  0.00     0.018 A 
ENDROOT
BRANCH   1   8
HETATM    8  C   LIG     1      15.831  31.043  13.615  1.00  0.00     0.176 C 
HETATM    9  O   LIG     1      15.708  29.879  13.149  1.00  0.00    -0.646 OA
BRANCH   8  10
HETATM   10  O   LIG     1      16.612  31.961  12.913  1.00  0.00    -0.773 OA
HETATM   11  H   LIG     1      17.145  32.688  13.373  1.00  0.00     0.167 HD
ENDBRANCH   8  10
ENDBRANCH   1   8
TORSDOF 2
ENDMDL
MODEL 14
REMARK VINA RESULT:      -5.5      2.857      3.902
REMARK  2 active torsions:
REMARK  status: ('A' for Active; 'I' for Inactive)
REMARK    1  A    between atoms: C_2  and  C_3 
REMARK    2  A    between atoms: C_2  and  O_10 
ROOT
HETATM    1  C   LIG     1      17.915  36.800  20.808  1.00  0.00     0.038 A 
HETATM    2  C   LIG     1      17.893  37.725  21.868  1.00  0.00     0.025 A 
HETATM    3  C   LIG     1      17.328  37.380  23.107  1.00  0.00    -0.061 A 
HETATM    4  C   LIG     1      17.276  38.386  24.219  1.00  0.00     0.048 C 
HETATM    5  C   LIG     1      16.758  36.111  23.277  1.00  0.00     0.007 A 
HETATM    6  C   LIG     1      16.786  35.183  22.234  1.00  0.00     0.002 A 
HETATM    7  C   LIG     1      17.366  35.521  21.009  1.00  0.00     0.018 A 
ENDROOT
BRANCH   1   8
HETATM    8  C   LIG     1      18.522  37.147  19.498  1.00  0.00     0.176 C 
HETATM    9  O   LIG     1      19.420  38.029  19.440  1.00  0.00    -0.646 OA
BRANCH   8  10
HETATM   10  O   LIG     1      18.136  36.511  18.318  1.00  0.00    -0.773 OA
HETATM   11  H   LIG     1      18.642  36.623  17.449  1.00  0.00     0.167 HD
ENDBRANCH   8  10
ENDBRANCH   1   8
TORSDOF 2
ENDMDL
MODEL 15
REMARK VINA RESULT:      -5.4      6.959      8.279
REMARK  2 active torsions:
REMARK  status: ('A' for Active; 'I' for Inactive)
REMARK    1  A    between atoms: C_2  and  C_3 
REMARK    2  A    between atoms: C_2  and  O_10 
ROOT
HETATM    1  C   LIG     1      14.819  32.306  17.236  1.00  0.00     0.038 A 
HETATM    2  C   LIG     1      15.540  32.425  16.033  1.00  0.00     0.025 A 
HETATM    3  C   LIG     1      15.215  31.630  14.922  1.00  0.00    -0.061 A 
HETATM    4  C   LIG     1      16.014  31.739  13.656  1.00  0.00     0.048 C 
HETATM    5  C   LIG     1      14.178  30.692  15.022  1.00  0.00     0.007 A 
HETATM    6  C   LIG     1      13.450  30.576  16.208  1.00  0.00     0.002 A 
HETATM    7  C   LIG     1      13.761  31.381  17.306  1.00  0.00     0.018 A 
ENDROOT
BRANCH   1   8
HETATM    8  C   LIG     1      15.143  33.149  18.413  1.00  0.00     0.176 C 
HETATM    9  O   LIG     1      15.181  32.630  19.561  1.00  0.00    -0.646 OA
BRANCH   8  10
HETATM   10  O   LIG     1      15.426  34.508  18.289  1.00  0.00    -0.773 OA
HETATM   11  H   LIG     1      16.201  34.856  17.738  1.00  0.00     0.167 HD
ENDBRANCH   8  10
ENDBRANCH   1   8
TORSDOF 2
ENDMDL
MODEL 16
REMARK VINA RESULT:      -5.3      7.457      9.012
REMARK  2 active torsions:
REMARK  status: ('A' for Active; 'I' for Inactive)
REMARK    1  A    between atoms: C_2  and  C_3 
REMARK    2  A    between atoms: C_2  and  O_10 
ROOT
HETATM    1  C   LIG     1      15.540  32.846  15.790  1.00  0.00     0.038 A 
HETATM    2  C   LIG     1      14.428  32.196  16.357  1.00  0.00     0.025 A 
HETATM    3  C   LIG     1      13.964  30.980  15.829  1.00  0.00    -0.061 A 
HETATM    4  C   LIG     1      12.755  30.313  16.417  1.00  0.00     0.048 C 
HETATM    5  C   LIG     1      14.601  30.424  14.710  1.00  0.00     0.007 A 
HETATM    6  C   LIG     1      15.712  31.056  14.149  1.00  0.00     0.002 A 
HETATM    7  C   LIG     1      16.184  32.256  14.688  1.00  0.00     0.018 A 
ENDROOT
BRANCH   1   8
HETATM    8  C   LIG     1      16.048  34.124  16.346  1.00  0.00     0.176 C 
HETATM    9  O   LIG     1      16.873  34.809  15.684  1.00  0.00    -0.646 OA
BRANCH   8  10
HETATM   10  O   LIG     1      15.627  34.606  17.585  1.00  0.00    -0.773 OA
HETATM   11  H   LIG     1      16.260  34.734  18.364  1.00  0.00     0.167 HD
ENDBRANCH   8  10
ENDBRANCH   1   8
TORSDOF 2
ENDMDL
MODEL 17
REMARK VINA RESULT:      -5.3      2.044      2.672
REMARK  2 active torsions:
REMARK  status: ('A' for Active; 'I' for Inactive)
REMARK    1  A    between atoms: C_2  and  C_3 
REMARK    2  A    between atoms: C_2  and  O_10 
ROOT
HETATM    1  C   LIG     1      16.766  36.366  21.029  1.00  0.00     0.038 A 
HETATM    2  C   LIG     1      17.054  37.494  21.819  1.00  0.00     0.025 A 
HETATM    3  C   LIG     1      18.116  38.351  21.483  1.00  0.00    -0.061 A 
HETATM    4  C   LIG     1      18.439  39.530  22.352  1.00  0.00     0.048 C 
HETATM    5  C   LIG     1      18.910  38.062  20.364  1.00  0.00     0.007 A 
HETATM    6  C   LIG     1      18.623  36.951  19.568  1.00  0.00     0.002 A 
HETATM    7  C   LIG     1      17.554  36.111  19.892  1.00  0.00     0.018 A 
ENDROOT
BRANCH   1   8
HETATM    8  C   LIG     1      15.639  35.461  21.365  1.00  0.00     0.176 C 
HETATM    9  O   LIG     1      15.877  34.290  21.765  1.00  0.00    -0.646 OA
BRANCH   8  10
HETATM   10  O   LIG     1      14.311  35.872  21.265  1.00  0.00    -0.773 OA
HETATM   11  H   LIG     1      13.672  35.492  20.579  1.00  0.00     0.167 HD
ENDBRANCH   8  10
ENDBRANCH   1   8
TORSDOF 2
ENDMDL
MODEL 18
REMARK VINA RESULT:      -4.8      7.792      9.206
REMARK  2 active torsions:
REMARK  status: ('A' for Active; 'I' for Inactive)
REMARK    1  A    between atoms: C_2  and  C_3 
REMARK    2  A    between atoms: C_2  and  O_10 
ROOT
HETATM    1  C   LIG     1      14.623  31.774  16.291  1.00  0.00     0.038 A 
HETATM    2  C   LIG     1      14.595  30.926  15.168  1.00  0.00     0.025 A 
HETATM    3  C   LIG     1      15.521  31.090  14.125  1.00  0.00    -0.061 A 
HETATM    4  C   LIG     1      15.459  30.204  12.915  1.00  0.00     0.048 C 
HETATM    5  C   LIG     1      16.465  32.124  14.193  1.00  0.00     0.007 A 
HETATM    6  C   LIG     1      16.507  32.962  15.309  1.00  0.00     0.002 A 
HETATM    7  C   LIG     1      15.598  32.786  16.356  1.00  0.00     0.018 A 
ENDROOT
BRANCH   1   8
HETATM    8  C   LIG     1      13.659  31.604  17.406  1.00  0.00     0.176 C 
HETATM    9  O   LIG     1      14.072  31.623  18.597  1.00  0.00    -0.646 OA
BRANCH   8  10
HETATM   10  O   LIG     1      12.294  31.436  17.179  1.00  0.00    -0.773 OA
HETATM   11  H   LIG     1      11.805  31.901  16.424  1.00  0.00     0.167 HD
ENDBRANCH   8  10
ENDBRANCH   1   8
TORSDOF 2
ENDMDL
MODEL 19
REMARK VINA RESULT:      -4.6      2.623      4.043
REMARK  2 active torsions:
REMARK  status: ('A' for Active; 'I' for Inactive)
REMARK    1  A    between atoms: C_2  and  C_3 
REMARK    2  A    between atoms: C_2  and  O_10 
ROOT
HETATM    1  C   LIG     1      17.914  38.399  22.050  1.00  0.00     0.038 A 
HETATM    2  C   LIG     1      18.539  38.162  23.289  1.00  0.00     0.025 A 
HETATM    3  C   LIG     1      17.786  37.766  24.406  1.00  0.00    -0.061 A 
HETATM    4  C   LIG     1      18.457  37.552  25.731  1.00  0.00     0.048 C 
HETATM    5  C   LIG     1      16.396  37.631  24.290  1.00  0.00     0.007 A 
HETATM    6  C   LIG     1      15.769  37.852  23.063  1.00  0.00     0.002 A 
HETATM    7  C   LIG     1      16.522  38.226  21.947  1.00  0.00     0.018 A 
ENDROOT
BRANCH   1   8
HETATM    8  C   LIG     1      18.699  38.805  20.858  1.00  0.00     0.176 C 
HETATM    9  O   LIG     1      18.895  40.028  20.626  1.00  0.00    -0.646 OA
BRANCH   8  10
HETATM   10  O   LIG     1      19.248  37.867  19.985  1.00  0.00    -0.773 OA
HETATM   11  H   LIG     1      18.924  37.753  19.033  1.00  0.00     0.167 HD
ENDBRANCH   8  10
ENDBRANCH   1   8
TORSDOF 2
ENDMDL
MODEL 20
REMARK VINA RESULT:      -4.1     17.667     18.023
REMARK  2 active torsions:
REMARK  status: ('A' for Active; 'I' for Inactive)
REMARK    1  A    between atoms: C_2  and  C_3 
REMARK    2  A    between atoms: C_2  and  O_10 
ROOT
HETATM    1  C   LIG     1      26.953  28.639  33.650  1.00  0.00     0.038 A 
HETATM    2  C   LIG     1      26.209  29.382  34.586  1.00  0.00     0.025 A 
HETATM    3  C   LIG     1      26.693  30.607  35.073  1.00  0.00    -0.061 A 
HETATM    4  C   LIG     1      25.910  31.374  36.098  1.00  0.00     0.048 C 
HETATM    5  C   LIG     1      27.941  31.079  34.642  1.00  0.00     0.007 A 
HETATM    6  C   LIG     1      28.680  30.354  33.706  1.00  0.00     0.002 A 
HETATM    7  C   LIG     1      28.188  29.145  33.206  1.00  0.00     0.018 A 
ENDROOT
BRANCH   1   8
HETATM    8  C   LIG     1      26.448  27.350  33.117  1.00  0.00     0.176 C 
HETATM    9  O   LIG     1      26.327  27.193  31.872  1.00  0.00    -0.646 OA
BRANCH   8  10
HETATM   10  O   LIG     1      26.111  26.288  33.956  1.00  0.00    -0.773 OA
HETATM   11  H   LIG     1      25.192  25.865  33.958  1.00  0.00     0.167 HD
ENDBRANCH   8  10
ENDBRANCH   1   8
TORSDOF 2
ENDMDL
