REMARK  2 active torsions:
REMARK  status: ('A' for Active; 'I' for Inactive)
REMARK    1  A    between atoms: C_2  and  C_3 
REMARK    2  A    between atoms: C_5  and  N_6 
ROOT
HETATM    1  C   LIG     1      -0.576   0.140  -0.290  1.00  0.00     0.011 A 
HETATM    2  C   LIG     1       0.578   0.885  -0.597  1.00  0.00     0.044 A 
HETATM    3  C   LIG     1       1.841   0.277  -0.605  1.00  0.00     0.026 A 
HETATM    4  C   LIG     1       1.954  -1.089  -0.314  1.00  0.00     0.029 A 
HETATM    5  C   LIG     1       0.815  -1.840  -0.023  1.00  0.00     0.003 A 
HETATM    6  C   LIG     1      -0.444  -1.234  -0.013  1.00  0.00     0.015 A 
ENDROOT
BRANCH   1   7
HETATM    7  C   LIG     1      -1.904   0.801  -0.295  1.00  0.00     0.155 C 
HETATM    8  C   LIG     1      -3.049   0.311   0.542  1.00  0.00     0.096 C 
HETATM    9  O   LIG     1      -2.087   1.819  -1.015  1.00  0.00    -0.293 OA
ENDBRANCH   1   7
BRANCH   3  10
HETATM   10  N   LIG     1       3.009   1.045  -0.910  1.00  0.00    -0.399 N 
HETATM   11  H   LIG     1       2.936   2.064  -1.129  1.00  0.00     0.156 HD
HETATM   12  H   LIG     1       3.954   0.601  -0.919  1.00  0.00     0.156 HD
ENDBRANCH   3  10
TORSDOF 2
