REMARK  5 active torsions:
REMARK  status: ('A' for Active; 'I' for Inactive)
REMARK    1  A    between atoms: C_2  and  C_3 
REMARK    2  A    between atoms: C_2  and  O_12 
REMARK    3  A    between atoms: C_5  and  O_6 
REMARK    4  A    between atoms: C_8  and  O_9 
REMARK    5  A    between atoms: C_10  and  O_11 
ROOT
HETATM    1  C   LIG     1       0.245  -0.366   0.008  1.00  0.00     0.044 A 
HETATM    2  C   LIG     1      -0.154   0.982   0.011  1.00  0.00     0.057 A 
HETATM    3  C   LIG     1      -1.511   1.325  -0.067  1.00  0.00     0.102 A 
HETATM    4  C   LIG     1      -0.738  -1.368  -0.074  1.00  0.00     0.057 A 
HETATM    5  C   LIG     1      -2.096  -1.030  -0.152  1.00  0.00     0.102 A 
HETATM    6  C   LIG     1      -2.485   0.316  -0.149  1.00  0.00     0.132 A 
ENDROOT
BRANCH   1   7
HETATM    7  C   LIG     1       1.680  -0.720   0.090  1.00  0.00     0.293 C 
HETATM    8  O   LIG     1       2.035  -1.931   0.087  1.00  0.00    -0.259 OA
BRANCH   7   9
HETATM    9  O   LIG     1       2.644   0.291   0.171  1.00  0.00    -0.323 OA
HETATM   10  C   LIG     1       4.038   0.018   0.252  1.00  0.00     0.213 C 
ENDBRANCH   7   9
ENDBRANCH   1   7
BRANCH   3  11
HETATM   11  O   LIG     1      -1.895   2.665  -0.064  1.00  0.00    -0.358 OA
HETATM   12  H   LIG     1      -1.213   3.413  -0.006  1.00  0.00     0.217 HD
ENDBRANCH   3  11
BRANCH   5  13
HETATM   13  O   LIG     1      -3.066  -2.027  -0.233  1.00  0.00    -0.358 OA
HETATM   14  H   LIG     1      -2.818  -3.010  -0.238  1.00  0.00     0.217 HD
ENDBRANCH   5  13
BRANCH   6  15
HETATM   15  O   LIG     1      -3.841   0.633  -0.227  1.00  0.00    -0.356 OA
HETATM   16  H   LIG     1      -4.172   1.590  -0.228  1.00  0.00     0.218 HD
ENDBRANCH   6  15
TORSDOF 5
