MODEL 1
REMARK VINA RESULT:      -6.4      0.000      0.000
REMARK  5 active torsions:
REMARK  status: ('A' for Active; 'I' for Inactive)
REMARK    1  A    between atoms: C_2  and  C_3 
REMARK    2  A    between atoms: C_2  and  O_12 
REMARK    3  A    between atoms: C_5  and  O_6 
REMARK    4  A    between atoms: C_8  and  O_9 
REMARK    5  A    between atoms: C_10  and  O_11 
ROOT
HETATM    1  C   LIG     1      17.621  37.888  22.714  1.00  0.00     0.044 A 
HETATM    2  C   LIG     1      18.483  38.861  22.178  1.00  0.00     0.057 A 
HETATM    3  C   LIG     1      18.911  38.780  20.846  1.00  0.00     0.102 A 
HETATM    4  C   LIG     1      17.192  36.831  21.893  1.00  0.00     0.057 A 
HETATM    5  C   LIG     1      17.617  36.745  20.560  1.00  0.00     0.102 A 
HETATM    6  C   LIG     1      18.477  37.718  20.034  1.00  0.00     0.132 A 
ENDROOT
BRANCH   1   7
HETATM    7  C   LIG     1      17.174  37.981  24.122  1.00  0.00     0.293 C 
HETATM    8  O   LIG     1      15.945  38.070  24.392  1.00  0.00    -0.259 OA
BRANCH   7   9
HETATM    9  O   LIG     1      18.118  37.970  25.155  1.00  0.00    -0.323 OA
HETATM   10  C   LIG     1      18.273  36.868  26.042  1.00  0.00     0.213 C 
ENDBRANCH   7   9
ENDBRANCH   1   7
BRANCH   3  11
HETATM   11  O   LIG     1      19.766  39.749  20.325  1.00  0.00    -0.358 OA
HETATM   12  H   LIG     1      19.910  40.638  20.793  1.00  0.00     0.217 HD
ENDBRANCH   3  11
BRANCH   5  13
HETATM   13  O   LIG     1      17.189  35.695  19.751  1.00  0.00    -0.358 OA
HETATM   14  H   LIG     1      16.302  35.729  19.261  1.00  0.00     0.217 HD
ENDBRANCH   5  13
BRANCH   6  15
HETATM   15  O   LIG     1      18.889  37.617  18.705  1.00  0.00    -0.356 OA
HETATM   16  H   LIG     1      18.254  37.351  17.963  1.00  0.00     0.218 HD
ENDBRANCH   6  15
TORSDOF 5
ENDMDL
MODEL 2
REMARK VINA RESULT:      -6.4      8.516     10.613
REMARK  5 active torsions:
REMARK  status: ('A' for Active; 'I' for Inactive)
REMARK    1  A    between atoms: C_2  and  C_3 
REMARK    2  A    between atoms: C_2  and  O_12 
REMARK    3  A    between atoms: C_5  and  O_6 
REMARK    4  A    between atoms: C_8  and  O_9 
REMARK    5  A    between atoms: C_10  and  O_11 
ROOT
HETATM    1  C   LIG     1      15.769  32.025  15.068  1.00  0.00     0.044 A 
HETATM    2  C   LIG     1      15.161  30.994  14.331  1.00  0.00     0.057 A 
HETATM    3  C   LIG     1      14.030  30.331  14.829  1.00  0.00     0.102 A 
HETATM    4  C   LIG     1      15.227  32.383  16.315  1.00  0.00     0.057 A 
HETATM    5  C   LIG     1      14.097  31.723  16.817  1.00  0.00     0.102 A 
HETATM    6  C   LIG     1      13.497  30.697  16.076  1.00  0.00     0.132 A 
ENDROOT
BRANCH   1   7
HETATM    7  C   LIG     1      16.963  32.719  14.535  1.00  0.00     0.293 C 
HETATM    8  O   LIG     1      18.051  32.689  15.173  1.00  0.00    -0.259 OA
BRANCH   7   9
HETATM    9  O   LIG     1      16.883  33.410  13.321  1.00  0.00    -0.323 OA
HETATM   10  C   LIG     1      17.996  34.088  12.749  1.00  0.00     0.213 C 
ENDBRANCH   7   9
ENDBRANCH   1   7
BRANCH   3  11
HETATM   11  O   LIG     1      13.435  29.310  14.090  1.00  0.00    -0.358 OA
HETATM   12  H   LIG     1      12.796  28.648  14.516  1.00  0.00     0.217 HD
ENDBRANCH   3  11
BRANCH   5  13
HETATM   13  O   LIG     1      13.564  32.082  18.053  1.00  0.00    -0.358 OA
HETATM   14  H   LIG     1      13.865  32.921  18.538  1.00  0.00     0.217 HD
ENDBRANCH   5  13
BRANCH   6  15
HETATM   15  O   LIG     1      12.373  30.052  16.592  1.00  0.00    -0.356 OA
HETATM   16  H   LIG     1      12.265  29.864  17.581  1.00  0.00     0.218 HD
ENDBRANCH   6  15
TORSDOF 5
ENDMDL
MODEL 3
REMARK VINA RESULT:      -6.4      8.496     10.452
REMARK  5 active torsions:
REMARK  status: ('A' for Active; 'I' for Inactive)
REMARK    1  A    between atoms: C_2  and  C_3 
REMARK    2  A    between atoms: C_2  and  O_12 
REMARK    3  A    between atoms: C_5  and  O_6 
REMARK    4  A    between atoms: C_8  and  O_9 
REMARK    5  A    between atoms: C_10  and  O_11 
ROOT
HETATM    1  C   LIG     1      15.758  32.012  15.079  1.00  0.00     0.044 A 
HETATM    2  C   LIG     1      15.243  32.372  16.336  1.00  0.00     0.057 A 
HETATM    3  C   LIG     1      14.115  31.723  16.858  1.00  0.00     0.102 A 
HETATM    4  C   LIG     1      15.125  30.990  14.349  1.00  0.00     0.057 A 
HETATM    5  C   LIG     1      13.998  30.338  14.867  1.00  0.00     0.102 A 
HETATM    6  C   LIG     1      13.490  30.703  16.121  1.00  0.00     0.132 A 
ENDROOT
BRANCH   1   7
HETATM    7  C   LIG     1      16.949  32.702  14.535  1.00  0.00     0.293 C 
HETATM    8  O   LIG     1      18.038  32.685  15.172  1.00  0.00    -0.259 OA
BRANCH   7   9
HETATM    9  O   LIG     1      16.867  33.375  13.311  1.00  0.00    -0.323 OA
HETATM   10  C   LIG     1      17.950  34.122  12.771  1.00  0.00     0.213 C 
ENDBRANCH   7   9
ENDBRANCH   1   7
BRANCH   3  11
HETATM   11  O   LIG     1      13.613  32.088  18.106  1.00  0.00    -0.358 OA
HETATM   12  H   LIG     1      13.302  33.034  18.297  1.00  0.00     0.217 HD
ENDBRANCH   3  11
BRANCH   5  13
HETATM   13  O   LIG     1      13.374  29.326  14.140  1.00  0.00    -0.358 OA
HETATM   14  H   LIG     1      13.848  28.454  13.929  1.00  0.00     0.217 HD
ENDBRANCH   5  13
BRANCH   6  15
HETATM   15  O   LIG     1      12.367  30.043  16.619  1.00  0.00    -0.356 OA
HETATM   16  H   LIG     1      12.093  29.124  16.294  1.00  0.00     0.218 HD
ENDBRANCH   6  15
TORSDOF 5
ENDMDL
MODEL 4
REMARK VINA RESULT:      -6.4      2.319      5.276
REMARK  5 active torsions:
REMARK  status: ('A' for Active; 'I' for Inactive)
REMARK    1  A    between atoms: C_2  and  C_3 
REMARK    2  A    between atoms: C_2  and  O_12 
REMARK    3  A    between atoms: C_5  and  O_6 
REMARK    4  A    between atoms: C_8  and  O_9 
REMARK    5  A    between atoms: C_10  and  O_11 
ROOT
HETATM    1  C   LIG     1      16.618  35.871  22.287  1.00  0.00     0.044 A 
HETATM    2  C   LIG     1      17.017  35.185  23.447  1.00  0.00     0.057 A 
HETATM    3  C   LIG     1      17.300  35.884  24.628  1.00  0.00     0.102 A 
HETATM    4  C   LIG     1      16.506  37.272  22.328  1.00  0.00     0.057 A 
HETATM    5  C   LIG     1      16.788  37.976  23.507  1.00  0.00     0.102 A 
HETATM    6  C   LIG     1      17.185  37.283  24.659  1.00  0.00     0.132 A 
ENDROOT
BRANCH   1   7
HETATM    7  C   LIG     1      16.322  35.126  21.042  1.00  0.00     0.293 C 
HETATM    8  O   LIG     1      16.846  35.482  19.951  1.00  0.00    -0.259 OA
BRANCH   7   9
HETATM    9  O   LIG     1      15.460  34.024  21.078  1.00  0.00    -0.323 OA
HETATM   10  C   LIG     1      15.438  33.033  20.058  1.00  0.00     0.213 C 
ENDBRANCH   7   9
ENDBRANCH   1   7
BRANCH   3  11
HETATM   11  O   LIG     1      17.695  35.192  25.772  1.00  0.00    -0.358 OA
HETATM   12  H   LIG     1      18.657  35.202  26.094  1.00  0.00     0.217 HD
ENDBRANCH   3  11
BRANCH   5  13
HETATM   13  O   LIG     1      16.675  39.364  23.543  1.00  0.00    -0.358 OA
HETATM   14  H   LIG     1      16.181  39.875  22.820  1.00  0.00     0.217 HD
ENDBRANCH   5  13
BRANCH   6  15
HETATM   15  O   LIG     1      17.461  38.000  25.823  1.00  0.00    -0.356 OA
HETATM   16  H   LIG     1      17.562  39.008  25.825  1.00  0.00     0.218 HD
ENDBRANCH   6  15
TORSDOF 5
ENDMDL
MODEL 5
REMARK VINA RESULT:      -6.4      2.314      4.983
REMARK  5 active torsions:
REMARK  status: ('A' for Active; 'I' for Inactive)
REMARK    1  A    between atoms: C_2  and  C_3 
REMARK    2  A    between atoms: C_2  and  O_12 
REMARK    3  A    between atoms: C_5  and  O_6 
REMARK    4  A    between atoms: C_8  and  O_9 
REMARK    5  A    between atoms: C_10  and  O_11 
ROOT
HETATM    1  C   LIG     1      16.626  35.870  22.291  1.00  0.00     0.044 A 
HETATM    2  C   LIG     1      16.514  37.271  22.325  1.00  0.00     0.057 A 
HETATM    3  C   LIG     1      16.791  37.982  23.501  1.00  0.00     0.102 A 
HETATM    4  C   LIG     1      17.022  35.190  23.456  1.00  0.00     0.057 A 
HETATM    5  C   LIG     1      17.301  35.896  24.635  1.00  0.00     0.102 A 
HETATM    6  C   LIG     1      17.186  37.292  24.659  1.00  0.00     0.132 A 
ENDROOT
BRANCH   1   7
HETATM    7  C   LIG     1      16.330  35.127  21.046  1.00  0.00     0.293 C 
HETATM    8  O   LIG     1      16.851  35.487  19.954  1.00  0.00    -0.259 OA
BRANCH   7   9
HETATM    9  O   LIG     1      15.472  34.023  21.080  1.00  0.00    -0.323 OA
HETATM   10  C   LIG     1      15.442  33.041  20.050  1.00  0.00     0.213 C 
ENDBRANCH   7   9
ENDBRANCH   1   7
BRANCH   3  11
HETATM   11  O   LIG     1      16.676  39.371  23.522  1.00  0.00    -0.358 OA
HETATM   12  H   LIG     1      17.313  39.965  23.004  1.00  0.00     0.217 HD
ENDBRANCH   3  11
BRANCH   5  13
HETATM   13  O   LIG     1      17.693  35.217  25.786  1.00  0.00    -0.358 OA
HETATM   14  H   LIG     1      17.052  35.066  26.558  1.00  0.00     0.217 HD
ENDBRANCH   5  13
BRANCH   6  15
HETATM   15  O   LIG     1      17.467  37.978  25.841  1.00  0.00    -0.356 OA
HETATM   16  H   LIG     1      17.490  37.515  26.741  1.00  0.00     0.218 HD
ENDBRANCH   6  15
TORSDOF 5
ENDMDL
MODEL 6
REMARK VINA RESULT:      -6.3      0.646      2.413
REMARK  5 active torsions:
REMARK  status: ('A' for Active; 'I' for Inactive)
REMARK    1  A    between atoms: C_2  and  C_3 
REMARK    2  A    between atoms: C_2  and  O_12 
REMARK    3  A    between atoms: C_5  and  O_6 
REMARK    4  A    between atoms: C_8  and  O_9 
REMARK    5  A    between atoms: C_10  and  O_11 
ROOT
HETATM    1  C   LIG     1      17.613  37.766  22.977  1.00  0.00     0.044 A 
HETATM    2  C   LIG     1      17.176  36.691  22.183  1.00  0.00     0.057 A 
HETATM    3  C   LIG     1      17.522  36.620  20.826  1.00  0.00     0.102 A 
HETATM    4  C   LIG     1      18.405  38.769  22.391  1.00  0.00     0.057 A 
HETATM    5  C   LIG     1      18.753  38.702  21.035  1.00  0.00     0.102 A 
HETATM    6  C   LIG     1      18.312  37.628  20.250  1.00  0.00     0.132 A 
ENDROOT
BRANCH   1   7
HETATM    7  C   LIG     1      17.243  37.835  24.409  1.00  0.00     0.293 C 
HETATM    8  O   LIG     1      16.903  38.936  24.923  1.00  0.00    -0.259 OA
BRANCH   7   9
HETATM    9  O   LIG     1      17.271  36.676  25.193  1.00  0.00    -0.323 OA
HETATM   10  C   LIG     1      18.200  36.489  26.255  1.00  0.00     0.213 C 
ENDBRANCH   7   9
ENDBRANCH   1   7
BRANCH   3  11
HETATM   11  O   LIG     1      17.082  35.550  20.048  1.00  0.00    -0.358 OA
HETATM   12  H   LIG     1      16.194  35.578  19.559  1.00  0.00     0.217 HD
ENDBRANCH   3  11
BRANCH   5  13
HETATM   13  O   LIG     1      19.537  39.699  20.459  1.00  0.00    -0.358 OA
HETATM   14  H   LIG     1      19.400  39.995  19.499  1.00  0.00     0.217 HD
ENDBRANCH   5  13
BRANCH   6  15
HETATM   15  O   LIG     1      18.669  37.578  18.903  1.00  0.00    -0.356 OA
HETATM   16  H   LIG     1      19.633  37.634  18.598  1.00  0.00     0.218 HD
ENDBRANCH   6  15
TORSDOF 5
ENDMDL
MODEL 7
REMARK VINA RESULT:      -6.2      1.722      2.614
REMARK  5 active torsions:
REMARK  status: ('A' for Active; 'I' for Inactive)
REMARK    1  A    between atoms: C_2  and  C_3 
REMARK    2  A    between atoms: C_2  and  O_12 
REMARK    3  A    between atoms: C_5  and  O_6 
REMARK    4  A    between atoms: C_8  and  O_9 
REMARK    5  A    between atoms: C_10  and  O_11 
ROOT
HETATM    1  C   LIG     1      16.501  37.456  22.495  1.00  0.00     0.044 A 
HETATM    2  C   LIG     1      17.490  37.331  21.503  1.00  0.00     0.057 A 
HETATM    3  C   LIG     1      17.366  36.371  20.489  1.00  0.00     0.102 A 
HETATM    4  C   LIG     1      15.384  36.603  22.456  1.00  0.00     0.057 A 
HETATM    5  C   LIG     1      15.256  35.642  21.444  1.00  0.00     0.102 A 
HETATM    6  C   LIG     1      16.246  35.524  20.459  1.00  0.00     0.132 A 
ENDROOT
BRANCH   1   7
HETATM    7  C   LIG     1      16.640  38.472  23.562  1.00  0.00     0.293 C 
HETATM    8  O   LIG     1      16.769  39.691  23.264  1.00  0.00    -0.259 OA
BRANCH   7   9
HETATM    9  O   LIG     1      16.627  38.079  24.905  1.00  0.00    -0.323 OA
HETATM   10  C   LIG     1      17.537  37.121  25.434  1.00  0.00     0.213 C 
ENDBRANCH   7   9
ENDBRANCH   1   7
BRANCH   3  11
HETATM   11  O   LIG     1      18.352  36.255  19.511  1.00  0.00    -0.358 OA
HETATM   12  H   LIG     1      18.183  36.532  18.550  1.00  0.00     0.217 HD
ENDBRANCH   3  11
BRANCH   5  13
HETATM   13  O   LIG     1      14.146  34.800  21.410  1.00  0.00    -0.358 OA
HETATM   14  H   LIG     1      14.245  33.791  21.435  1.00  0.00     0.217 HD
ENDBRANCH   5  13
BRANCH   6  15
HETATM   15  O   LIG     1      16.101  34.561  19.460  1.00  0.00    -0.356 OA
HETATM   16  H   LIG     1      16.830  34.371  18.785  1.00  0.00     0.218 HD
ENDBRANCH   6  15
TORSDOF 5
ENDMDL
MODEL 8
REMARK VINA RESULT:      -6.1      1.712      4.755
REMARK  5 active torsions:
REMARK  status: ('A' for Active; 'I' for Inactive)
REMARK    1  A    between atoms: C_2  and  C_3 
REMARK    2  A    between atoms: C_2  and  O_12 
REMARK    3  A    between atoms: C_5  and  O_6 
REMARK    4  A    between atoms: C_8  and  O_9 
REMARK    5  A    between atoms: C_10  and  O_11 
ROOT
HETATM    1  C   LIG     1      18.568  38.450  20.270  1.00  0.00     0.044 A 
HETATM    2  C   LIG     1      18.141  39.072  21.456  1.00  0.00     0.057 A 
HETATM    3  C   LIG     1      17.385  38.364  22.401  1.00  0.00     0.102 A 
HETATM    4  C   LIG     1      18.226  37.105  20.044  1.00  0.00     0.057 A 
HETATM    5  C   LIG     1      17.469  36.394  20.985  1.00  0.00     0.102 A 
HETATM    6  C   LIG     1      17.047  37.021  22.164  1.00  0.00     0.132 A 
ENDROOT
BRANCH   1   7
HETATM    7  C   LIG     1      19.367  39.204  19.278  1.00  0.00     0.293 C 
HETATM    8  O   LIG     1      20.625  39.235  19.368  1.00  0.00    -0.259 OA
BRANCH   7   9
HETATM    9  O   LIG     1      18.724  39.884  18.237  1.00  0.00    -0.323 OA
HETATM   10  C   LIG     1      18.810  39.467  16.879  1.00  0.00     0.213 C 
ENDBRANCH   7   9
ENDBRANCH   1   7
BRANCH   3  11
HETATM   11  O   LIG     1      16.966  38.991  23.573  1.00  0.00    -0.358 OA
HETATM   12  H   LIG     1      16.444  38.493  24.285  1.00  0.00     0.217 HD
ENDBRANCH   3  11
BRANCH   5  13
HETATM   13  O   LIG     1      17.133  35.061  20.755  1.00  0.00    -0.358 OA
HETATM   14  H   LIG     1      16.987  34.704  19.818  1.00  0.00     0.217 HD
ENDBRANCH   5  13
BRANCH   6  15
HETATM   15  O   LIG     1      16.296  36.297  23.090  1.00  0.00    -0.356 OA
HETATM   16  H   LIG     1      16.216  36.579  24.059  1.00  0.00     0.218 HD
ENDBRANCH   6  15
TORSDOF 5
ENDMDL
MODEL 9
REMARK VINA RESULT:      -6.1      2.084      4.152
REMARK  5 active torsions:
REMARK  status: ('A' for Active; 'I' for Inactive)
REMARK    1  A    between atoms: C_2  and  C_3 
REMARK    2  A    between atoms: C_2  and  O_12 
REMARK    3  A    between atoms: C_5  and  O_6 
REMARK    4  A    between atoms: C_8  and  O_9 
REMARK    5  A    between atoms: C_10  and  O_11 
ROOT
HETATM    1  C   LIG     1      16.520  36.046  21.245  1.00  0.00     0.044 A 
HETATM    2  C   LIG     1      17.609  36.311  20.397  1.00  0.00     0.057 A 
HETATM    3  C   LIG     1      18.374  37.475  20.559  1.00  0.00     0.102 A 
HETATM    4  C   LIG     1      16.208  36.966  22.262  1.00  0.00     0.057 A 
HETATM    5  C   LIG     1      16.970  38.131  22.428  1.00  0.00     0.102 A 
HETATM    6  C   LIG     1      18.053  38.387  21.577  1.00  0.00     0.132 A 
ENDROOT
BRANCH   1   7
HETATM    7  C   LIG     1      15.717  34.815  21.068  1.00  0.00     0.293 C 
HETATM    8  O   LIG     1      14.683  34.626  21.767  1.00  0.00    -0.259 OA
BRANCH   7   9
HETATM    9  O   LIG     1      16.106  33.859  20.122  1.00  0.00    -0.323 OA
HETATM   10  C   LIG     1      15.358  32.674  19.876  1.00  0.00     0.213 C 
ENDBRANCH   7   9
ENDBRANCH   1   7
BRANCH   3  11
HETATM   11  O   LIG     1      19.451  37.727  19.711  1.00  0.00    -0.358 OA
HETATM   12  H   LIG     1      19.442  37.436  18.740  1.00  0.00     0.217 HD
ENDBRANCH   3  11
BRANCH   5  13
HETATM   13  O   LIG     1      16.656  39.039  23.437  1.00  0.00    -0.358 OA
HETATM   14  H   LIG     1      15.696  39.282  23.653  1.00  0.00     0.217 HD
ENDBRANCH   5  13
BRANCH   6  15
HETATM   15  O   LIG     1      18.799  39.552  21.758  1.00  0.00    -0.356 OA
HETATM   16  H   LIG     1      18.511  40.442  21.372  1.00  0.00     0.218 HD
ENDBRANCH   6  15
TORSDOF 5
ENDMDL
MODEL 10
REMARK VINA RESULT:      -6.1      2.080      4.141
REMARK  5 active torsions:
REMARK  status: ('A' for Active; 'I' for Inactive)
REMARK    1  A    between atoms: C_2  and  C_3 
REMARK    2  A    between atoms: C_2  and  O_12 
REMARK    3  A    between atoms: C_5  and  O_6 
REMARK    4  A    between atoms: C_8  and  O_9 
REMARK    5  A    between atoms: C_10  and  O_11 
ROOT
HETATM    1  C   LIG     1      16.510  36.072  21.236  1.00  0.00     0.044 A 
HETATM    2  C   LIG     1      16.184  36.996  22.244  1.00  0.00     0.057 A 
HETATM    3  C   LIG     1      16.945  38.162  22.417  1.00  0.00     0.102 A 
HETATM    4  C   LIG     1      17.611  36.333  20.401  1.00  0.00     0.057 A 
HETATM    5  C   LIG     1      18.374  37.497  20.570  1.00  0.00     0.102 A 
HETATM    6  C   LIG     1      18.043  38.412  21.578  1.00  0.00     0.132 A 
ENDROOT
BRANCH   1   7
HETATM    7  C   LIG     1      15.703  34.844  21.060  1.00  0.00     0.293 C 
HETATM    8  O   LIG     1      14.666  34.662  21.757  1.00  0.00    -0.259 OA
BRANCH   7   9
HETATM    9  O   LIG     1      16.090  33.883  20.120  1.00  0.00    -0.323 OA
HETATM   10  C   LIG     1      15.348  32.692  19.889  1.00  0.00     0.213 C 
ENDBRANCH   7   9
ENDBRANCH   1   7
BRANCH   3  11
HETATM   11  O   LIG     1      16.613  39.071  23.420  1.00  0.00    -0.358 OA
HETATM   12  H   LIG     1      17.047  39.985  23.473  1.00  0.00     0.217 HD
ENDBRANCH   3  11
BRANCH   5  13
HETATM   13  O   LIG     1      19.464  37.751  19.740  1.00  0.00    -0.358 OA
HETATM   14  H   LIG     1      19.366  37.788  18.732  1.00  0.00     0.217 HD
ENDBRANCH   5  13
BRANCH   6  15
HETATM   15  O   LIG     1      18.813  39.565  21.730  1.00  0.00    -0.356 OA
HETATM   16  H   LIG     1      18.399  40.487  21.791  1.00  0.00     0.218 HD
ENDBRANCH   6  15
TORSDOF 5
ENDMDL
MODEL 11
REMARK VINA RESULT:      -6.0      7.966     10.737
REMARK  5 active torsions:
REMARK  status: ('A' for Active; 'I' for Inactive)
REMARK    1  A    between atoms: C_2  and  C_3 
REMARK    2  A    between atoms: C_2  and  O_12 
REMARK    3  A    between atoms: C_5  and  O_6 
REMARK    4  A    between atoms: C_8  and  O_9 
REMARK    5  A    between atoms: C_10  and  O_11 
ROOT
HETATM    1  C   LIG     1      14.588  30.669  15.083  1.00  0.00     0.044 A 
HETATM    2  C   LIG     1      13.973  30.823  16.337  1.00  0.00     0.057 A 
HETATM    3  C   LIG     1      14.282  31.919  17.154  1.00  0.00     0.102 A 
HETATM    4  C   LIG     1      15.520  31.632  14.657  1.00  0.00     0.057 A 
HETATM    5  C   LIG     1      15.832  32.730  15.470  1.00  0.00     0.102 A 
HETATM    6  C   LIG     1      15.215  32.876  16.720  1.00  0.00     0.132 A 
ENDROOT
BRANCH   1   7
HETATM    7  C   LIG     1      14.256  29.508  14.226  1.00  0.00     0.293 C 
HETATM    8  O   LIG     1      13.072  29.076  14.175  1.00  0.00    -0.259 OA
BRANCH   7   9
HETATM    9  O   LIG     1      15.259  28.889  13.472  1.00  0.00    -0.323 OA
HETATM   10  C   LIG     1      15.453  27.479  13.463  1.00  0.00     0.213 C 
ENDBRANCH   7   9
ENDBRANCH   1   7
BRANCH   3  11
HETATM   11  O   LIG     1      13.667  32.061  18.397  1.00  0.00    -0.358 OA
HETATM   12  H   LIG     1      13.932  32.799  19.040  1.00  0.00     0.217 HD
ENDBRANCH   3  11
BRANCH   5  13
HETATM   13  O   LIG     1      16.756  33.682  15.044  1.00  0.00    -0.358 OA
HETATM   14  H   LIG     1      17.745  33.468  14.974  1.00  0.00     0.217 HD
ENDBRANCH   5  13
BRANCH   6  15
HETATM   15  O   LIG     1      15.538  33.975  17.515  1.00  0.00    -0.356 OA
HETATM   16  H   LIG     1      14.894  34.742  17.663  1.00  0.00     0.218 HD
ENDBRANCH   6  15
TORSDOF 5
ENDMDL
MODEL 12
REMARK VINA RESULT:      -6.0      7.821     10.498
REMARK  5 active torsions:
REMARK  status: ('A' for Active; 'I' for Inactive)
REMARK    1  A    between atoms: C_2  and  C_3 
REMARK    2  A    between atoms: C_2  and  O_12 
REMARK    3  A    between atoms: C_5  and  O_6 
REMARK    4  A    between atoms: C_8  and  O_9 
REMARK    5  A    between atoms: C_10  and  O_11 
ROOT
HETATM    1  C   LIG     1      14.710  30.862  15.151  1.00  0.00     0.044 A 
HETATM    2  C   LIG     1      15.579  31.925  14.848  1.00  0.00     0.057 A 
HETATM    3  C   LIG     1      15.803  32.951  15.777  1.00  0.00     0.102 A 
HETATM    4  C   LIG     1      14.068  30.841  16.401  1.00  0.00     0.057 A 
HETATM    5  C   LIG     1      14.289  31.865  17.333  1.00  0.00     0.102 A 
HETATM    6  C   LIG     1      15.156  32.921  17.023  1.00  0.00     0.132 A 
ENDROOT
BRANCH   1   7
HETATM    7  C   LIG     1      14.479  29.783  14.164  1.00  0.00     0.293 C 
HETATM    8  O   LIG     1      15.380  29.478  13.335  1.00  0.00    -0.259 OA
BRANCH   7   9
HETATM    9  O   LIG     1      13.257  29.100  14.151  1.00  0.00    -0.323 OA
HETATM   10  C   LIG     1      13.155  27.714  13.847  1.00  0.00     0.213 C 
ENDBRANCH   7   9
ENDBRANCH   1   7
BRANCH   3  11
HETATM   11  O   LIG     1      16.666  34.000  15.465  1.00  0.00    -0.358 OA
HETATM   12  H   LIG     1      16.871  34.252  14.505  1.00  0.00     0.217 HD
ENDBRANCH   3  11
BRANCH   5  13
HETATM   13  O   LIG     1      13.649  31.839  18.571  1.00  0.00    -0.358 OA
HETATM   14  H   LIG     1      13.603  32.662  19.162  1.00  0.00     0.217 HD
ENDBRANCH   5  13
BRANCH   6  15
HETATM   15  O   LIG     1      15.363  33.930  17.963  1.00  0.00    -0.356 OA
HETATM   16  H   LIG     1      15.152  33.803  18.946  1.00  0.00     0.218 HD
ENDBRANCH   6  15
TORSDOF 5
ENDMDL
MODEL 13
REMARK VINA RESULT:      -5.9      7.069      9.381
REMARK  5 active torsions:
REMARK  status: ('A' for Active; 'I' for Inactive)
REMARK    1  A    between atoms: C_2  and  C_3 
REMARK    2  A    between atoms: C_2  and  O_12 
REMARK    3  A    between atoms: C_5  and  O_6 
REMARK    4  A    between atoms: C_8  and  O_9 
REMARK    5  A    between atoms: C_10  and  O_11 
ROOT
HETATM    1  C   LIG     1      15.033  32.609  16.383  1.00  0.00     0.044 A 
HETATM    2  C   LIG     1      13.901  31.890  16.806  1.00  0.00     0.057 A 
HETATM    3  C   LIG     1      13.449  30.779  16.081  1.00  0.00     0.102 A 
HETATM    4  C   LIG     1      15.707  32.197  15.220  1.00  0.00     0.057 A 
HETATM    5  C   LIG     1      15.259  31.087  14.491  1.00  0.00     0.102 A 
HETATM    6  C   LIG     1      14.130  30.376  14.919  1.00  0.00     0.132 A 
ENDROOT
BRANCH   1   7
HETATM    7  C   LIG     1      15.504  33.781  17.155  1.00  0.00     0.293 C 
HETATM    8  O   LIG     1      15.925  34.807  16.553  1.00  0.00    -0.259 OA
BRANCH   7   9
HETATM    9  O   LIG     1      15.481  33.750  18.553  1.00  0.00    -0.323 OA
HETATM   10  C   LIG     1      15.730  34.902  19.351  1.00  0.00     0.213 C 
ENDBRANCH   7   9
ENDBRANCH   1   7
BRANCH   3  11
HETATM   11  O   LIG     1      12.325  30.074  16.509  1.00  0.00    -0.358 OA
HETATM   12  H   LIG     1      11.560  30.535  16.988  1.00  0.00     0.217 HD
ENDBRANCH   3  11
BRANCH   5  13
HETATM   13  O   LIG     1      15.930  30.683  13.339  1.00  0.00    -0.358 OA
HETATM   14  H   LIG     1      16.756  31.169  13.008  1.00  0.00     0.217 HD
ENDBRANCH   5  13
BRANCH   6  15
HETATM   15  O   LIG     1      13.699  29.274  14.182  1.00  0.00    -0.356 OA
HETATM   16  H   LIG     1      13.383  29.356  13.223  1.00  0.00     0.218 HD
ENDBRANCH   6  15
TORSDOF 5
ENDMDL
MODEL 14
REMARK VINA RESULT:      -5.7      7.907     10.369
REMARK  5 active torsions:
REMARK  status: ('A' for Active; 'I' for Inactive)
REMARK    1  A    between atoms: C_2  and  C_3 
REMARK    2  A    between atoms: C_2  and  O_12 
REMARK    3  A    between atoms: C_5  and  O_6 
REMARK    4  A    between atoms: C_8  and  O_9 
REMARK    5  A    between atoms: C_10  and  O_11 
ROOT
HETATM    1  C   LIG     1      15.349  31.920  15.409  1.00  0.00     0.044 A 
HETATM    2  C   LIG     1      15.691  31.068  14.344  1.00  0.00     0.057 A 
HETATM    3  C   LIG     1      14.875  29.978  14.011  1.00  0.00     0.102 A 
HETATM    4  C   LIG     1      14.175  31.662  16.138  1.00  0.00     0.057 A 
HETATM    5  C   LIG     1      13.356  30.573  15.809  1.00  0.00     0.102 A 
HETATM    6  C   LIG     1      13.704  29.729  14.746  1.00  0.00     0.132 A 
ENDROOT
BRANCH   1   7
HETATM    7  C   LIG     1      16.216  33.068  15.755  1.00  0.00     0.293 C 
HETATM    8  O   LIG     1      17.463  32.998  15.574  1.00  0.00    -0.259 OA
BRANCH   7   9
HETATM    9  O   LIG     1      15.651  34.235  16.282  1.00  0.00    -0.323 OA
HETATM   10  C   LIG     1      15.350  34.385  17.665  1.00  0.00     0.213 C 
ENDBRANCH   7   9
ENDBRANCH   1   7
BRANCH   3  11
HETATM   11  O   LIG     1      15.224  29.140  12.953  1.00  0.00    -0.358 OA
HETATM   12  H   LIG     1      16.093  28.618  12.954  1.00  0.00     0.217 HD
ENDBRANCH   3  11
BRANCH   5  13
HETATM   13  O   LIG     1      12.193  30.322  16.535  1.00  0.00    -0.358 OA
HETATM   14  H   LIG     1      11.324  30.075  16.076  1.00  0.00     0.217 HD
ENDBRANCH   5  13
BRANCH   6  15
HETATM   15  O   LIG     1      12.877  28.651  14.434  1.00  0.00    -0.356 OA
HETATM   16  H   LIG     1      13.247  27.747  14.166  1.00  0.00     0.218 HD
ENDBRANCH   6  15
TORSDOF 5
ENDMDL
MODEL 15
REMARK VINA RESULT:      -5.3      2.038      3.465
REMARK  5 active torsions:
REMARK  status: ('A' for Active; 'I' for Inactive)
REMARK    1  A    between atoms: C_2  and  C_3 
REMARK    2  A    between atoms: C_2  and  O_12 
REMARK    3  A    between atoms: C_5  and  O_6 
REMARK    4  A    between atoms: C_8  and  O_9 
REMARK    5  A    between atoms: C_10  and  O_11 
ROOT
HETATM    1  C   LIG     1      17.294  36.561  21.641  1.00  0.00     0.044 A 
HETATM    2  C   LIG     1      17.607  36.300  20.296  1.00  0.00     0.057 A 
HETATM    3  C   LIG     1      18.301  37.246  19.528  1.00  0.00     0.102 A 
HETATM    4  C   LIG     1      17.688  37.786  22.208  1.00  0.00     0.057 A 
HETATM    5  C   LIG     1      18.382  38.734  21.444  1.00  0.00     0.102 A 
HETATM    6  C   LIG     1      18.689  38.467  20.104  1.00  0.00     0.132 A 
ENDROOT
BRANCH   1   7
HETATM    7  C   LIG     1      16.561  35.557  22.445  1.00  0.00     0.293 C 
HETATM    8  O   LIG     1      17.099  35.048  23.467  1.00  0.00    -0.259 OA
BRANCH   7   9
HETATM    9  O   LIG     1      15.269  35.172  22.070  1.00  0.00    -0.323 OA
HETATM   10  C   LIG     1      15.012  34.023  21.271  1.00  0.00     0.213 C 
ENDBRANCH   7   9
ENDBRANCH   1   7
BRANCH   3  11
HETATM   11  O   LIG     1      18.605  36.977  18.194  1.00  0.00    -0.358 OA
HETATM   12  H   LIG     1      18.983  36.081  17.906  1.00  0.00     0.217 HD
ENDBRANCH   3  11
BRANCH   5  13
HETATM   13  O   LIG     1      18.770  39.947  22.011  1.00  0.00    -0.358 OA
HETATM   14  H   LIG     1      19.418  40.569  21.542  1.00  0.00     0.217 HD
ENDBRANCH   5  13
BRANCH   6  15
HETATM   15  O   LIG     1      19.381  39.423  19.360  1.00  0.00    -0.356 OA
HETATM   16  H   LIG     1      19.419  40.396  19.635  1.00  0.00     0.218 HD
ENDBRANCH   6  15
TORSDOF 5
ENDMDL
MODEL 16
REMARK VINA RESULT:      -5.2      8.452     10.957
REMARK  5 active torsions:
REMARK  status: ('A' for Active; 'I' for Inactive)
REMARK    1  A    between atoms: C_2  and  C_3 
REMARK    2  A    between atoms: C_2  and  O_12 
REMARK    3  A    between atoms: C_5  and  O_6 
REMARK    4  A    between atoms: C_8  and  O_9 
REMARK    5  A    between atoms: C_10  and  O_11 
ROOT
HETATM    1  C   LIG     1      15.467  31.285  15.053  1.00  0.00     0.044 A 
HETATM    2  C   LIG     1      14.270  31.264  15.790  1.00  0.00     0.057 A 
HETATM    3  C   LIG     1      13.316  30.259  15.574  1.00  0.00     0.102 A 
HETATM    4  C   LIG     1      15.695  30.282  14.094  1.00  0.00     0.057 A 
HETATM    5  C   LIG     1      14.745  29.275  13.875  1.00  0.00     0.102 A 
HETATM    6  C   LIG     1      13.554  29.262  14.614  1.00  0.00     0.132 A 
ENDROOT
BRANCH   1   7
HETATM    7  C   LIG     1      16.468  32.350  15.286  1.00  0.00     0.293 C 
HETATM    8  O   LIG     1      17.397  32.538  14.453  1.00  0.00    -0.259 OA
BRANCH   7   9
HETATM    9  O   LIG     1      16.383  33.148  16.432  1.00  0.00    -0.323 OA
HETATM   10  C   LIG     1      15.423  34.188  16.574  1.00  0.00     0.213 C 
ENDBRANCH   7   9
ENDBRANCH   1   7
BRANCH   3  11
HETATM   11  O   LIG     1      12.133  30.248  16.311  1.00  0.00    -0.358 OA
HETATM   12  H   LIG     1      11.252  30.544  15.905  1.00  0.00     0.217 HD
ENDBRANCH   3  11
BRANCH   5  13
HETATM   13  O   LIG     1      14.976  28.283  12.924  1.00  0.00    -0.358 OA
HETATM   14  H   LIG     1      14.405  28.204  12.090  1.00  0.00     0.217 HD
ENDBRANCH   5  13
BRANCH   6  15
HETATM   15  O   LIG     1      12.621  28.252  14.382  1.00  0.00    -0.356 OA
HETATM   16  H   LIG     1      12.891  27.283  14.267  1.00  0.00     0.218 HD
ENDBRANCH   6  15
TORSDOF 5
ENDMDL
MODEL 17
REMARK VINA RESULT:      -5.2      1.876      2.779
REMARK  5 active torsions:
REMARK  status: ('A' for Active; 'I' for Inactive)
REMARK    1  A    between atoms: C_2  and  C_3 
REMARK    2  A    between atoms: C_2  and  O_12 
REMARK    3  A    between atoms: C_5  and  O_6 
REMARK    4  A    between atoms: C_8  and  O_9 
REMARK    5  A    between atoms: C_10  and  O_11 
ROOT
HETATM    1  C   LIG     1      17.467  36.626  21.757  1.00  0.00     0.044 A 
HETATM    2  C   LIG     1      17.804  37.900  22.245  1.00  0.00     0.057 A 
HETATM    3  C   LIG     1      18.400  38.852  21.406  1.00  0.00     0.102 A 
HETATM    4  C   LIG     1      17.737  36.318  20.411  1.00  0.00     0.057 A 
HETATM    5  C   LIG     1      18.333  37.267  19.569  1.00  0.00     0.102 A 
HETATM    6  C   LIG     1      18.665  38.534  20.064  1.00  0.00     0.132 A 
ENDROOT
BRANCH   1   7
HETATM    7  C   LIG     1      16.839  35.626  22.649  1.00  0.00     0.293 C 
HETATM    8  O   LIG     1      17.160  35.574  23.869  1.00  0.00    -0.259 OA
BRANCH   7   9
HETATM    9  O   LIG     1      15.887  34.736  22.139  1.00  0.00    -0.323 OA
HETATM   10  C   LIG     1      14.766  35.166  21.375  1.00  0.00     0.213 C 
ENDBRANCH   7   9
ENDBRANCH   1   7
BRANCH   3  11
HETATM   11  O   LIG     1      18.730  40.112  21.902  1.00  0.00    -0.358 OA
HETATM   12  H   LIG     1      18.330  40.466  22.764  1.00  0.00     0.217 HD
ENDBRANCH   3  11
BRANCH   5  13
HETATM   13  O   LIG     1      18.597  36.957  18.236  1.00  0.00    -0.358 OA
HETATM   14  H   LIG     1      18.741  36.000  17.932  1.00  0.00     0.217 HD
ENDBRANCH   5  13
BRANCH   6  15
HETATM   15  O   LIG     1      19.257  39.465  19.210  1.00  0.00    -0.356 OA
HETATM   16  H   LIG     1      20.257  39.625  19.197  1.00  0.00     0.218 HD
ENDBRANCH   6  15
TORSDOF 5
ENDMDL
MODEL 18
REMARK VINA RESULT:      -5.1      7.851     10.325
REMARK  5 active torsions:
REMARK  status: ('A' for Active; 'I' for Inactive)
REMARK    1  A    between atoms: C_2  and  C_3 
REMARK    2  A    between atoms: C_2  and  O_12 
REMARK    3  A    between atoms: C_5  and  O_6 
REMARK    4  A    between atoms: C_8  and  O_9 
REMARK    5  A    between atoms: C_10  and  O_11 
ROOT
HETATM    1  C   LIG     1      14.883  31.338  15.024  1.00  0.00     0.044 A 
HETATM    2  C   LIG     1      15.724  31.449  13.902  1.00  0.00     0.057 A 
HETATM    3  C   LIG     1      16.618  32.523  13.784  1.00  0.00     0.102 A 
HETATM    4  C   LIG     1      14.952  32.320  16.028  1.00  0.00     0.057 A 
HETATM    5  C   LIG     1      15.845  33.394  15.914  1.00  0.00     0.102 A 
HETATM    6  C   LIG     1      16.678  33.498  14.793  1.00  0.00     0.132 A 
ENDROOT
BRANCH   1   7
HETATM    7  C   LIG     1      13.942  30.202  15.141  1.00  0.00     0.293 C 
HETATM    8  O   LIG     1      12.965  30.268  15.937  1.00  0.00    -0.259 OA
BRANCH   7   9
HETATM    9  O   LIG     1      14.136  29.053  14.366  1.00  0.00    -0.323 OA
HETATM   10  C   LIG     1      13.058  28.242  13.911  1.00  0.00     0.213 C 
ENDBRANCH   7   9
ENDBRANCH   1   7
BRANCH   3  11
HETATM   11  O   LIG     1      17.446  32.623  12.667  1.00  0.00    -0.358 OA
HETATM   12  H   LIG     1      18.372  32.211  12.653  1.00  0.00     0.217 HD
ENDBRANCH   3  11
BRANCH   5  13
HETATM   13  O   LIG     1      15.909  34.365  16.912  1.00  0.00    -0.358 OA
HETATM   14  H   LIG     1      15.407  34.261  17.787  1.00  0.00     0.217 HD
ENDBRANCH   5  13
BRANCH   6  15
HETATM   15  O   LIG     1      17.560  34.575  14.697  1.00  0.00    -0.356 OA
HETATM   16  H   LIG     1      18.501  34.535  15.068  1.00  0.00     0.218 HD
ENDBRANCH   6  15
TORSDOF 5
ENDMDL
MODEL 19
REMARK VINA RESULT:      -5.0      4.042      5.629
REMARK  5 active torsions:
REMARK  status: ('A' for Active; 'I' for Inactive)
REMARK    1  A    between atoms: C_2  and  C_3 
REMARK    2  A    between atoms: C_2  and  O_12 
REMARK    3  A    between atoms: C_5  and  O_6 
REMARK    4  A    between atoms: C_8  and  O_9 
REMARK    5  A    between atoms: C_10  and  O_11 
ROOT
HETATM    1  C   LIG     1      15.681  34.346  20.227  1.00  0.00     0.044 A 
HETATM    2  C   LIG     1      15.676  34.874  18.924  1.00  0.00     0.057 A 
HETATM    3  C   LIG     1      15.298  34.080  17.833  1.00  0.00     0.102 A 
HETATM    4  C   LIG     1      15.300  33.007  20.421  1.00  0.00     0.057 A 
HETATM    5  C   LIG     1      14.920  32.208  19.333  1.00  0.00     0.102 A 
HETATM    6  C   LIG     1      14.919  32.742  18.038  1.00  0.00     0.132 A 
ENDROOT
BRANCH   1   7
HETATM    7  C   LIG     1      16.082  35.191  21.374  1.00  0.00     0.293 C 
HETATM    8  O   LIG     1      17.125  34.917  22.029  1.00  0.00    -0.259 OA
BRANCH   7   9
HETATM    9  O   LIG     1      15.302  36.296  21.732  1.00  0.00    -0.323 OA
HETATM   10  C   LIG     1      15.806  37.369  22.520  1.00  0.00     0.213 C 
ENDBRANCH   7   9
ENDBRANCH   1   7
BRANCH   3  11
HETATM   11  O   LIG     1      15.298  34.614  16.546  1.00  0.00    -0.358 OA
HETATM   12  H   LIG     1      15.934  35.357  16.279  1.00  0.00     0.217 HD
ENDBRANCH   3  11
BRANCH   5  13
HETATM   13  O   LIG     1      14.543  30.881  19.531  1.00  0.00    -0.358 OA
HETATM   14  H   LIG     1      13.688  30.640  20.019  1.00  0.00     0.217 HD
ENDBRANCH   5  13
BRANCH   6  15
HETATM   15  O   LIG     1      14.539  31.933  16.968  1.00  0.00    -0.356 OA
HETATM   16  H   LIG     1      15.215  31.445  16.393  1.00  0.00     0.218 HD
ENDBRANCH   6  15
TORSDOF 5
ENDMDL
MODEL 20
REMARK VINA RESULT:      -4.6      9.759     12.106
REMARK  5 active torsions:
REMARK  status: ('A' for Active; 'I' for Inactive)
REMARK    1  A    between atoms: C_2  and  C_3 
REMARK    2  A    between atoms: C_2  and  O_12 
REMARK    3  A    between atoms: C_5  and  O_6 
REMARK    4  A    between atoms: C_8  and  O_9 
REMARK    5  A    between atoms: C_10  and  O_11 
ROOT
HETATM    1  C   LIG     1      14.551  30.272  14.792  1.00  0.00     0.044 A 
HETATM    2  C   LIG     1      15.535  29.345  14.405  1.00  0.00     0.057 A 
HETATM    3  C   LIG     1      15.180  28.168  13.731  1.00  0.00     0.102 A 
HETATM    4  C   LIG     1      13.204  30.002  14.492  1.00  0.00     0.057 A 
HETATM    5  C   LIG     1      12.845  28.827  13.819  1.00  0.00     0.102 A 
HETATM    6  C   LIG     1      13.831  27.908  13.437  1.00  0.00     0.132 A 
ENDROOT
BRANCH   1   7
HETATM    7  C   LIG     1      14.933  31.512  15.504  1.00  0.00     0.293 C 
HETATM    8  O   LIG     1      14.587  31.686  16.705  1.00  0.00    -0.259 OA
BRANCH   7   9
HETATM    9  O   LIG     1      15.680  32.494  14.842  1.00  0.00    -0.323 OA
HETATM   10  C   LIG     1      17.084  32.640  15.019  1.00  0.00     0.213 C 
ENDBRANCH   7   9
ENDBRANCH   1   7
BRANCH   3  11
HETATM   11  O   LIG     1      16.164  27.255  13.352  1.00  0.00    -0.358 OA
HETATM   12  H   LIG     1      15.929  26.317  13.048  1.00  0.00     0.217 HD
ENDBRANCH   3  11
BRANCH   5  13
HETATM   13  O   LIG     1      11.509  28.564  13.525  1.00  0.00    -0.358 OA
HETATM   14  H   LIG     1      11.243  27.887  12.818  1.00  0.00     0.217 HD
ENDBRANCH   5  13
BRANCH   6  15
HETATM   15  O   LIG     1      13.455  26.744  12.767  1.00  0.00    -0.356 OA
HETATM   16  H   LIG     1      12.773  26.749  12.018  1.00  0.00     0.218 HD
ENDBRANCH   6  15
TORSDOF 5
ENDMDL
