REMARK  6 active torsions:
REMARK  status: ('A' for Active; 'I' for Inactive)
REMARK    1  A    between atoms: C_2  and  C_4 
REMARK    2  A    between atoms: C_2  and  O_3 
REMARK    3  A    between atoms: C_4  and  C_8 
REMARK    4  A    between atoms: C_4  and  C_5 
REMARK    5  A    between atoms: C_5  and  C_6 
REMARK    6  A    between atoms: C_8  and  C_9 
ROOT
HETATM    1  C   LIG     1      -0.126  -0.152   0.121  1.00  0.00     0.083 C 
ENDROOT
BRANCH   1   2
HETATM    2  C   LIG     1       0.104  -1.646   0.142  1.00  0.00     0.143 C 
HETATM    3  O   LIG     1       0.192  -2.246   1.245  1.00  0.00    -0.650 OA
BRANCH   2   4
HETATM    4  O   LIG     1       0.223  -2.377  -1.038  1.00  0.00    -0.776 OA
HETATM    5  H   LIG     1       0.158  -1.936  -1.947  1.00  0.00     0.167 HD
ENDBRANCH   2   4
ENDBRANCH   1   2
BRANCH   1   6
HETATM    6  C   LIG     1       1.056   0.581  -0.550  1.00  0.00     0.015 C 
BRANCH   6   7
HETATM    7  C   LIG     1       2.368   0.411   0.233  1.00  0.00    -0.004 C 
HETATM    8  C   LIG     1       3.502   1.200  -0.415  1.00  0.00     0.005 C 
ENDBRANCH   6   7
ENDBRANCH   1   6
BRANCH   1   9
HETATM    9  C   LIG     1      -1.451   0.202  -0.595  1.00  0.00     0.015 C 
BRANCH   9  10
HETATM   10  C   LIG     1      -2.701  -0.451   0.026  1.00  0.00    -0.004 C 
HETATM   11  C   LIG     1      -2.999   0.057   1.437  1.00  0.00     0.005 C 
ENDBRANCH   9  10
ENDBRANCH   1   9
TORSDOF 6
