REMARK  3 active torsions:
REMARK  status: ('A' for Active; 'I' for Inactive)
REMARK    1  A    between atoms: O_1  and  C_2 
REMARK    2  A    between atoms: C_5  and  C_6 
REMARK    3  A    between atoms: C_6  and  O_7 
ROOT
HETATM    1  C   LIG     1      -2.712  -0.266  -0.351  1.00  0.00     0.065 A 
HETATM    2  C   LIG     1      -2.074  -1.455   0.012  1.00  0.00     0.037 A 
HETATM    3  C   LIG     1      -0.687  -1.486   0.186  1.00  0.00     0.020 A 
HETATM    4  C   LIG     1       0.081  -0.321  -0.000  1.00  0.00     0.039 A 
HETATM    5  C   LIG     1      -0.569   0.872  -0.365  1.00  0.00     0.020 A 
HETATM    6  C   LIG     1      -1.957   0.898  -0.539  1.00  0.00     0.037 A 
ENDROOT
BRANCH   4   7
HETATM    7  C   LIG     1       1.549  -0.345   0.183  1.00  0.00     0.292 C 
HETATM    8  O   LIG     1       2.128  -1.418   0.510  1.00  0.00    -0.259 OA
BRANCH   7   9
HETATM    9  O   LIG     1       2.295   0.823  -0.007  1.00  0.00    -0.323 OA
HETATM   10  C   LIG     1       3.708   0.867   0.153  1.00  0.00     0.213 C 
ENDBRANCH   7   9
ENDBRANCH   4   7
BRANCH   1  11
HETATM   11  O   LIG     1      -4.095  -0.252  -0.522  1.00  0.00    -0.361 OA
HETATM   12  H   LIG     1      -4.587   0.595  -0.784  1.00  0.00     0.217 HD
ENDBRANCH   1  11
TORSDOF 3
