MODEL 1
REMARK VINA RESULT:      -6.7      0.000      0.000
REMARK  3 active torsions:
REMARK  status: ('A' for Active; 'I' for Inactive)
REMARK    1  A    between atoms: O_1  and  C_2 
REMARK    2  A    between atoms: C_5  and  C_6 
REMARK    3  A    between atoms: C_6  and  O_7 
ROOT
HETATM    1  C   LIG     1      19.643  38.775  19.837  1.00  0.00     0.065 A 
HETATM    2  C   LIG     1      19.037  39.588  20.798  1.00  0.00     0.037 A 
HETATM    3  C   LIG     1      18.017  39.082  21.610  1.00  0.00     0.020 A 
HETATM    4  C   LIG     1      17.591  37.747  21.469  1.00  0.00     0.039 A 
HETATM    5  C   LIG     1      18.206  36.935  20.500  1.00  0.00     0.020 A 
HETATM    6  C   LIG     1      19.226  37.446  19.689  1.00  0.00     0.037 A 
ENDROOT
BRANCH   4   7
HETATM    7  C   LIG     1      16.513  37.203  22.324  1.00  0.00     0.292 C 
HETATM    8  O   LIG     1      15.884  36.169  21.966  1.00  0.00    -0.259 OA
BRANCH   7   9
HETATM    9  O   LIG     1      16.192  37.836  23.529  1.00  0.00    -0.323 OA
HETATM   10  C   LIG     1      16.917  37.611  24.733  1.00  0.00     0.213 C 
ENDBRANCH   7   9
ENDBRANCH   4   7
BRANCH   1  11
HETATM   11  O   LIG     1      20.657  39.295  19.036  1.00  0.00    -0.361 OA
HETATM   12  H   LIG     1      20.631  39.206  18.026  1.00  0.00     0.217 HD
ENDBRANCH   1  11
TORSDOF 3
ENDMDL
MODEL 2
REMARK VINA RESULT:      -6.7      1.058      2.290
REMARK  3 active torsions:
REMARK  status: ('A' for Active; 'I' for Inactive)
REMARK    1  A    between atoms: O_1  and  C_2 
REMARK    2  A    between atoms: C_5  and  C_6 
REMARK    3  A    between atoms: C_6  and  O_7 
ROOT
HETATM    1  C   LIG     1      19.642  38.788  19.750  1.00  0.00     0.065 A 
HETATM    2  C   LIG     1      19.354  37.455  19.446  1.00  0.00     0.037 A 
HETATM    3  C   LIG     1      18.393  36.756  20.182  1.00  0.00     0.020 A 
HETATM    4  C   LIG     1      17.704  37.386  21.235  1.00  0.00     0.039 A 
HETATM    5  C   LIG     1      17.999  38.728  21.535  1.00  0.00     0.020 A 
HETATM    6  C   LIG     1      18.963  39.424  20.796  1.00  0.00     0.037 A 
ENDROOT
BRANCH   4   7
HETATM    7  C   LIG     1      16.685  36.653  22.018  1.00  0.00     0.292 C 
HETATM    8  O   LIG     1      16.798  36.558  23.272  1.00  0.00    -0.259 OA
BRANCH   7   9
HETATM    9  O   LIG     1      15.594  36.066  21.367  1.00  0.00    -0.323 OA
HETATM   10  C   LIG     1      15.380  34.659  21.344  1.00  0.00     0.213 C 
ENDBRANCH   7   9
ENDBRANCH   4   7
BRANCH   1  11
HETATM   11  O   LIG     1      20.604  39.471  19.008  1.00  0.00    -0.361 OA
HETATM   12  H   LIG     1      21.029  40.325  19.352  1.00  0.00     0.217 HD
ENDBRANCH   1  11
TORSDOF 3
ENDMDL
MODEL 3
REMARK VINA RESULT:      -6.1      1.432      4.939
REMARK  3 active torsions:
REMARK  status: ('A' for Active; 'I' for Inactive)
REMARK    1  A    between atoms: O_1  and  C_2 
REMARK    2  A    between atoms: C_5  and  C_6 
REMARK    3  A    between atoms: C_6  and  O_7 
ROOT
HETATM    1  C   LIG     1      17.288  36.824  22.030  1.00  0.00     0.065 A 
HETATM    2  C   LIG     1      17.758  36.240  20.851  1.00  0.00     0.037 A 
HETATM    3  C   LIG     1      18.437  37.012  19.904  1.00  0.00     0.020 A 
HETATM    4  C   LIG     1      18.656  38.385  20.127  1.00  0.00     0.039 A 
HETATM    5  C   LIG     1      18.179  38.965  21.317  1.00  0.00     0.020 A 
HETATM    6  C   LIG     1      17.499  38.188  22.261  1.00  0.00     0.037 A 
ENDROOT
BRANCH   4   7
HETATM    7  C   LIG     1      19.374  39.209  19.131  1.00  0.00     0.292 C 
HETATM    8  O   LIG     1      20.631  39.315  19.185  1.00  0.00    -0.259 OA
BRANCH   7   9
HETATM    9  O   LIG     1      18.659  39.872  18.127  1.00  0.00    -0.323 OA
HETATM   10  C   LIG     1      18.823  39.579  16.745  1.00  0.00     0.213 C 
ENDBRANCH   7   9
ENDBRANCH   4   7
BRANCH   1  11
HETATM   11  O   LIG     1      16.611  36.041  22.963  1.00  0.00    -0.361 OA
HETATM   12  H   LIG     1      16.320  36.418  23.858  1.00  0.00     0.217 HD
ENDBRANCH   1  11
TORSDOF 3
ENDMDL
MODEL 4
REMARK VINA RESULT:      -6.1      1.614      2.472
REMARK  3 active torsions:
REMARK  status: ('A' for Active; 'I' for Inactive)
REMARK    1  A    between atoms: O_1  and  C_2 
REMARK    2  A    between atoms: C_5  and  C_6 
REMARK    3  A    between atoms: C_6  and  O_7 
ROOT
HETATM    1  C   LIG     1      18.244  37.022  19.981  1.00  0.00     0.065 A 
HETATM    2  C   LIG     1      17.491  36.077  20.683  1.00  0.00     0.037 A 
HETATM    3  C   LIG     1      17.072  36.340  21.991  1.00  0.00     0.020 A 
HETATM    4  C   LIG     1      17.401  37.558  22.614  1.00  0.00     0.039 A 
HETATM    5  C   LIG     1      18.160  38.505  21.901  1.00  0.00     0.020 A 
HETATM    6  C   LIG     1      18.577  38.237  20.592  1.00  0.00     0.037 A 
ENDROOT
BRANCH   4   7
HETATM    7  C   LIG     1      16.961  37.845  23.997  1.00  0.00     0.292 C 
HETATM    8  O   LIG     1      15.733  37.987  24.253  1.00  0.00    -0.259 OA
BRANCH   7   9
HETATM    9  O   LIG     1      17.907  37.957  25.021  1.00  0.00    -0.323 OA
HETATM   10  C   LIG     1      18.048  36.981  26.047  1.00  0.00     0.213 C 
ENDBRANCH   7   9
ENDBRANCH   4   7
BRANCH   1  11
HETATM   11  O   LIG     1      18.655  36.745  18.679  1.00  0.00    -0.361 OA
HETATM   12  H   LIG     1      19.487  37.170  18.285  1.00  0.00     0.217 HD
ENDBRANCH   1  11
TORSDOF 3
ENDMDL
MODEL 5
REMARK VINA RESULT:      -6.1      2.260      4.901
REMARK  3 active torsions:
REMARK  status: ('A' for Active; 'I' for Inactive)
REMARK    1  A    between atoms: O_1  and  C_2 
REMARK    2  A    between atoms: C_5  and  C_6 
REMARK    3  A    between atoms: C_6  and  O_7 
ROOT
HETATM    1  C   LIG     1      17.835  35.583  25.602  1.00  0.00     0.065 A 
HETATM    2  C   LIG     1      18.166  36.898  25.938  1.00  0.00     0.037 A 
HETATM    3  C   LIG     1      17.888  37.943  25.052  1.00  0.00     0.020 A 
HETATM    4  C   LIG     1      17.269  37.683  23.815  1.00  0.00     0.039 A 
HETATM    5  C   LIG     1      16.938  36.356  23.484  1.00  0.00     0.020 A 
HETATM    6  C   LIG     1      17.220  35.314  24.374  1.00  0.00     0.037 A 
ENDROOT
BRANCH   4   7
HETATM    7  C   LIG     1      16.970  38.784  22.872  1.00  0.00     0.292 C 
HETATM    8  O   LIG     1      15.780  39.178  22.717  1.00  0.00    -0.259 OA
BRANCH   7   9
HETATM    9  O   LIG     1      18.006  39.387  22.153  1.00  0.00    -0.323 OA
HETATM   10  C   LIG     1      18.567  38.808  20.980  1.00  0.00     0.213 C 
ENDBRANCH   7   9
ENDBRANCH   4   7
BRANCH   1  11
HETATM   11  O   LIG     1      18.121  34.552  26.495  1.00  0.00    -0.361 OA
HETATM   12  H   LIG     1      18.444  34.743  27.437  1.00  0.00     0.217 HD
ENDBRANCH   1  11
TORSDOF 3
ENDMDL
MODEL 6
REMARK VINA RESULT:      -5.9      7.994      9.427
REMARK  3 active torsions:
REMARK  status: ('A' for Active; 'I' for Inactive)
REMARK    1  A    between atoms: O_1  and  C_2 
REMARK    2  A    between atoms: C_5  and  C_6 
REMARK    3  A    between atoms: C_6  and  O_7 
ROOT
HETATM    1  C   LIG     1      13.915  30.008  14.666  1.00  0.00     0.065 A 
HETATM    2  C   LIG     1      15.136  30.654  14.455  1.00  0.00     0.037 A 
HETATM    3  C   LIG     1      15.507  31.739  15.256  1.00  0.00     0.020 A 
HETATM    4  C   LIG     1      14.657  32.190  16.283  1.00  0.00     0.039 A 
HETATM    5  C   LIG     1      13.430  31.534  16.490  1.00  0.00     0.020 A 
HETATM    6  C   LIG     1      13.063  30.450  15.685  1.00  0.00     0.037 A 
ENDROOT
BRANCH   4   7
HETATM    7  C   LIG     1      15.043  33.337  17.136  1.00  0.00     0.292 C 
HETATM    8  O   LIG     1      14.783  34.515  16.766  1.00  0.00    -0.259 OA
BRANCH   7   9
HETATM    9  O   LIG     1      15.695  33.113  18.353  1.00  0.00    -0.323 OA
HETATM   10  C   LIG     1      15.104  32.380  19.419  1.00  0.00     0.213 C 
ENDBRANCH   7   9
ENDBRANCH   4   7
BRANCH   1  11
HETATM   11  O   LIG     1      13.560  28.929  13.859  1.00  0.00    -0.361 OA
HETATM   12  H   LIG     1      12.604  28.794  13.548  1.00  0.00     0.217 HD
ENDBRANCH   1  11
TORSDOF 3
ENDMDL
MODEL 7
REMARK VINA RESULT:      -5.9      7.727      9.751
REMARK  3 active torsions:
REMARK  status: ('A' for Active; 'I' for Inactive)
REMARK    1  A    between atoms: O_1  and  C_2 
REMARK    2  A    between atoms: C_5  and  C_6 
REMARK    3  A    between atoms: C_6  and  O_7 
ROOT
HETATM    1  C   LIG     1      13.485  30.991  16.352  1.00  0.00     0.065 A 
HETATM    2  C   LIG     1      14.276  30.634  15.256  1.00  0.00     0.037 A 
HETATM    3  C   LIG     1      15.369  31.424  14.889  1.00  0.00     0.020 A 
HETATM    4  C   LIG     1      15.687  32.585  15.619  1.00  0.00     0.039 A 
HETATM    5  C   LIG     1      14.887  32.938  16.720  1.00  0.00     0.020 A 
HETATM    6  C   LIG     1      13.793  32.145  17.084  1.00  0.00     0.037 A 
ENDROOT
BRANCH   4   7
HETATM    7  C   LIG     1      16.843  33.426  15.237  1.00  0.00     0.292 C 
HETATM    8  O   LIG     1      16.894  34.634  15.600  1.00  0.00    -0.259 OA
BRANCH   7   9
HETATM    9  O   LIG     1      17.881  32.881  14.473  1.00  0.00    -0.323 OA
HETATM   10  C   LIG     1      18.537  33.606  13.440  1.00  0.00     0.213 C 
ENDBRANCH   7   9
ENDBRANCH   4   7
BRANCH   1  11
HETATM   11  O   LIG     1      12.398  30.194  16.704  1.00  0.00    -0.361 OA
HETATM   12  H   LIG     1      11.498  30.294  16.247  1.00  0.00     0.217 HD
ENDBRANCH   1  11
TORSDOF 3
ENDMDL
MODEL 8
REMARK VINA RESULT:      -5.9      2.509      4.311
REMARK  3 active torsions:
REMARK  status: ('A' for Active; 'I' for Inactive)
REMARK    1  A    between atoms: O_1  and  C_2 
REMARK    2  A    between atoms: C_5  and  C_6 
REMARK    3  A    between atoms: C_6  and  O_7 
ROOT
HETATM    1  C   LIG     1      17.321  37.754  24.569  1.00  0.00     0.065 A 
HETATM    2  C   LIG     1      17.278  38.531  23.409  1.00  0.00     0.037 A 
HETATM    3  C   LIG     1      17.095  37.925  22.162  1.00  0.00     0.020 A 
HETATM    4  C   LIG     1      16.951  36.528  22.062  1.00  0.00     0.039 A 
HETATM    5  C   LIG     1      16.995  35.753  23.235  1.00  0.00     0.020 A 
HETATM    6  C   LIG     1      17.179  36.364  24.481  1.00  0.00     0.037 A 
ENDROOT
BRANCH   4   7
HETATM    7  C   LIG     1      16.756  35.879  20.747  1.00  0.00     0.292 C 
HETATM    8  O   LIG     1      17.624  36.014  19.840  1.00  0.00    -0.259 OA
BRANCH   7   9
HETATM    9  O   LIG     1      15.608  35.116  20.508  1.00  0.00    -0.323 OA
HETATM   10  C   LIG     1      15.641  33.700  20.378  1.00  0.00     0.213 C 
ENDBRANCH   7   9
ENDBRANCH   4   7
BRANCH   1  11
HETATM   11  O   LIG     1      17.505  38.373  25.805  1.00  0.00    -0.361 OA
HETATM   12  H   LIG     1      17.885  39.310  25.875  1.00  0.00     0.217 HD
ENDBRANCH   1  11
TORSDOF 3
ENDMDL
MODEL 9
REMARK VINA RESULT:      -5.9      2.732      3.757
REMARK  3 active torsions:
REMARK  status: ('A' for Active; 'I' for Inactive)
REMARK    1  A    between atoms: O_1  and  C_2 
REMARK    2  A    between atoms: C_5  and  C_6 
REMARK    3  A    between atoms: C_6  and  O_7 
ROOT
HETATM    1  C   LIG     1      15.867  35.274  20.369  1.00  0.00     0.065 A 
HETATM    2  C   LIG     1      14.817  35.658  21.207  1.00  0.00     0.037 A 
HETATM    3  C   LIG     1      15.022  36.629  22.193  1.00  0.00     0.020 A 
HETATM    4  C   LIG     1      16.285  37.230  22.350  1.00  0.00     0.039 A 
HETATM    5  C   LIG     1      17.336  36.838  21.501  1.00  0.00     0.020 A 
HETATM    6  C   LIG     1      17.127  35.866  20.517  1.00  0.00     0.037 A 
ENDROOT
BRANCH   4   7
HETATM    7  C   LIG     1      16.509  38.258  23.390  1.00  0.00     0.292 C 
HETATM    8  O   LIG     1      16.780  39.446  23.057  1.00  0.00    -0.259 OA
BRANCH   7   9
HETATM    9  O   LIG     1      16.421  37.913  24.743  1.00  0.00    -0.323 OA
HETATM   10  C   LIG     1      17.517  37.372  25.471  1.00  0.00     0.213 C 
ENDBRANCH   7   9
ENDBRANCH   4   7
BRANCH   1  11
HETATM   11  O   LIG     1      15.647  34.304  19.392  1.00  0.00    -0.361 OA
HETATM   12  H   LIG     1      14.922  34.414  18.692  1.00  0.00     0.217 HD
ENDBRANCH   1  11
TORSDOF 3
ENDMDL
MODEL 10
REMARK VINA RESULT:      -5.9      1.569      4.323
REMARK  3 active torsions:
REMARK  status: ('A' for Active; 'I' for Inactive)
REMARK    1  A    between atoms: O_1  and  C_2 
REMARK    2  A    between atoms: C_5  and  C_6 
REMARK    3  A    between atoms: C_6  and  O_7 
ROOT
HETATM    1  C   LIG     1      16.846  37.655  23.593  1.00  0.00     0.065 A 
HETATM    2  C   LIG     1      17.399  38.796  23.005  1.00  0.00     0.037 A 
HETATM    3  C   LIG     1      17.934  38.735  21.715  1.00  0.00     0.020 A 
HETATM    4  C   LIG     1      17.920  37.526  20.994  1.00  0.00     0.039 A 
HETATM    5  C   LIG     1      17.361  36.383  21.592  1.00  0.00     0.020 A 
HETATM    6  C   LIG     1      16.827  36.448  22.884  1.00  0.00     0.037 A 
ENDROOT
BRANCH   4   7
HETATM    7  C   LIG     1      18.483  37.454  19.627  1.00  0.00     0.292 C 
HETATM    8  O   LIG     1      18.360  36.397  18.948  1.00  0.00    -0.259 OA
BRANCH   7   9
HETATM    9  O   LIG     1      19.152  38.558  19.089  1.00  0.00    -0.323 OA
HETATM   10  C   LIG     1      20.527  38.822  19.342  1.00  0.00     0.213 C 
ENDBRANCH   7   9
ENDBRANCH   4   7
BRANCH   1  11
HETATM   11  O   LIG     1      16.318  37.732  24.880  1.00  0.00    -0.361 OA
HETATM   12  H   LIG     1      15.334  37.920  25.038  1.00  0.00     0.217 HD
ENDBRANCH   1  11
TORSDOF 3
ENDMDL
MODEL 11
REMARK VINA RESULT:      -5.8      8.794     10.519
REMARK  3 active torsions:
REMARK  status: ('A' for Active; 'I' for Inactive)
REMARK    1  A    between atoms: O_1  and  C_2 
REMARK    2  A    between atoms: C_5  and  C_6 
REMARK    3  A    between atoms: C_6  and  O_7 
ROOT
HETATM    1  C   LIG     1      13.414  29.446  14.422  1.00  0.00     0.065 A 
HETATM    2  C   LIG     1      14.673  29.738  13.893  1.00  0.00     0.037 A 
HETATM    3  C   LIG     1      15.433  30.787  14.420  1.00  0.00     0.020 A 
HETATM    4  C   LIG     1      14.940  31.558  15.489  1.00  0.00     0.039 A 
HETATM    5  C   LIG     1      13.670  31.258  16.016  1.00  0.00     0.020 A 
HETATM    6  C   LIG     1      12.913  30.208  15.485  1.00  0.00     0.037 A 
ENDROOT
BRANCH   4   7
HETATM    7  C   LIG     1      15.738  32.670  16.052  1.00  0.00     0.292 C 
HETATM    8  O   LIG     1      15.941  32.735  17.296  1.00  0.00    -0.259 OA
BRANCH   7   9
HETATM    9  O   LIG     1      16.267  33.648  15.204  1.00  0.00    -0.323 OA
HETATM   10  C   LIG     1      17.597  33.593  14.702  1.00  0.00     0.213 C 
ENDBRANCH   7   9
ENDBRANCH   4   7
BRANCH   1  11
HETATM   11  O   LIG     1      12.668  28.398  13.886  1.00  0.00    -0.361 OA
HETATM   12  H   LIG     1      13.076  27.482  13.734  1.00  0.00     0.217 HD
ENDBRANCH   1  11
TORSDOF 3
ENDMDL
MODEL 12
REMARK VINA RESULT:      -5.8      2.386      3.623
REMARK  3 active torsions:
REMARK  status: ('A' for Active; 'I' for Inactive)
REMARK    1  A    between atoms: O_1  and  C_2 
REMARK    2  A    between atoms: C_5  and  C_6 
REMARK    3  A    between atoms: C_6  and  O_7 
ROOT
HETATM    1  C   LIG     1      18.005  38.435  21.622  1.00  0.00     0.065 A 
HETATM    2  C   LIG     1      18.367  37.514  20.635  1.00  0.00     0.037 A 
HETATM    3  C   LIG     1      17.630  36.339  20.463  1.00  0.00     0.020 A 
HETATM    4  C   LIG     1      16.514  36.072  21.279  1.00  0.00     0.039 A 
HETATM    5  C   LIG     1      16.156  37.004  22.269  1.00  0.00     0.020 A 
HETATM    6  C   LIG     1      16.897  38.178  22.439  1.00  0.00     0.037 A 
ENDROOT
BRANCH   4   7
HETATM    7  C   LIG     1      15.728  34.831  21.103  1.00  0.00     0.292 C 
HETATM    8  O   LIG     1      14.647  34.672  21.736  1.00  0.00    -0.259 OA
BRANCH   7   9
HETATM    9  O   LIG     1      16.182  33.834  20.233  1.00  0.00    -0.323 OA
HETATM   10  C   LIG     1      15.380  32.723  19.852  1.00  0.00     0.213 C 
ENDBRANCH   7   9
ENDBRANCH   4   7
BRANCH   1  11
HETATM   11  O   LIG     1      18.752  39.601  21.781  1.00  0.00    -0.361 OA
HETATM   12  H   LIG     1      18.746  40.333  21.080  1.00  0.00     0.217 HD
ENDBRANCH   1  11
TORSDOF 3
ENDMDL
MODEL 13
REMARK VINA RESULT:      -5.7      8.891     10.413
REMARK  3 active torsions:
REMARK  status: ('A' for Active; 'I' for Inactive)
REMARK    1  A    between atoms: O_1  and  C_2 
REMARK    2  A    between atoms: C_5  and  C_6 
REMARK    3  A    between atoms: C_6  and  O_7 
ROOT
HETATM    1  C   LIG     1      14.921  32.989  16.900  1.00  0.00     0.065 A 
HETATM    2  C   LIG     1      13.862  32.121  17.177  1.00  0.00     0.037 A 
HETATM    3  C   LIG     1      13.629  31.010  16.360  1.00  0.00     0.020 A 
HETATM    4  C   LIG     1      14.460  30.752  15.253  1.00  0.00     0.039 A 
HETATM    5  C   LIG     1      15.525  31.631  14.982  1.00  0.00     0.020 A 
HETATM    6  C   LIG     1      15.753  32.742  15.801  1.00  0.00     0.037 A 
ENDROOT
BRANCH   4   7
HETATM    7  C   LIG     1      14.221  29.578  14.385  1.00  0.00     0.292 C 
HETATM    8  O   LIG     1      13.048  29.145  14.216  1.00  0.00    -0.259 OA
BRANCH   7   9
HETATM    9  O   LIG     1      15.298  28.950  13.750  1.00  0.00    -0.323 OA
HETATM   10  C   LIG     1      15.337  27.548  13.512  1.00  0.00     0.213 C 
ENDBRANCH   7   9
ENDBRANCH   4   7
BRANCH   1  11
HETATM   11  O   LIG     1      15.139  34.092  17.723  1.00  0.00    -0.361 OA
HETATM   12  H   LIG     1      15.178  34.001  18.732  1.00  0.00     0.217 HD
ENDBRANCH   1  11
TORSDOF 3
ENDMDL
MODEL 14
REMARK VINA RESULT:      -5.6      2.426      4.438
REMARK  3 active torsions:
REMARK  status: ('A' for Active; 'I' for Inactive)
REMARK    1  A    between atoms: O_1  and  C_2 
REMARK    2  A    between atoms: C_5  and  C_6 
REMARK    3  A    between atoms: C_6  and  O_7 
ROOT
HETATM    1  C   LIG     1      15.466  34.724  21.099  1.00  0.00     0.065 A 
HETATM    2  C   LIG     1      16.720  34.586  21.699  1.00  0.00     0.037 A 
HETATM    3  C   LIG     1      17.227  35.601  22.515  1.00  0.00     0.020 A 
HETATM    4  C   LIG     1      16.480  36.772  22.743  1.00  0.00     0.039 A 
HETATM    5  C   LIG     1      15.218  36.904  22.136  1.00  0.00     0.020 A 
HETATM    6  C   LIG     1      14.715  35.886  21.319  1.00  0.00     0.037 A 
ENDROOT
BRANCH   4   7
HETATM    7  C   LIG     1      17.009  37.851  23.606  1.00  0.00     0.292 C 
HETATM    8  O   LIG     1      16.436  38.127  24.697  1.00  0.00    -0.259 OA
BRANCH   7   9
HETATM    9  O   LIG     1      18.146  38.566  23.212  1.00  0.00    -0.323 OA
HETATM   10  C   LIG     1      18.251  39.205  21.946  1.00  0.00     0.213 C 
ENDBRANCH   7   9
ENDBRANCH   4   7
BRANCH   1  11
HETATM   11  O   LIG     1      14.975  33.704  20.287  1.00  0.00    -0.361 OA
HETATM   12  H   LIG     1      14.769  32.783  20.660  1.00  0.00     0.217 HD
ENDBRANCH   1  11
TORSDOF 3
ENDMDL
MODEL 15
REMARK VINA RESULT:      -5.6      7.929      8.983
REMARK  3 active torsions:
REMARK  status: ('A' for Active; 'I' for Inactive)
REMARK    1  A    between atoms: O_1  and  C_2 
REMARK    2  A    between atoms: C_5  and  C_6 
REMARK    3  A    between atoms: C_6  and  O_7 
ROOT
HETATM    1  C   LIG     1      16.349  32.016  13.850  1.00  0.00     0.065 A 
HETATM    2  C   LIG     1      15.456  30.941  13.879  1.00  0.00     0.037 A 
HETATM    3  C   LIG     1      14.591  30.774  14.965  1.00  0.00     0.020 A 
HETATM    4  C   LIG     1      14.608  31.685  16.037  1.00  0.00     0.039 A 
HETATM    5  C   LIG     1      15.510  32.764  15.999  1.00  0.00     0.020 A 
HETATM    6  C   LIG     1      16.374  32.927  14.912  1.00  0.00     0.037 A 
ENDROOT
BRANCH   4   7
HETATM    7  C   LIG     1      13.695  31.516  17.189  1.00  0.00     0.292 C 
HETATM    8  O   LIG     1      12.452  31.675  17.039  1.00  0.00    -0.259 OA
BRANCH   7   9
HETATM    9  O   LIG     1      14.211  31.179  18.445  1.00  0.00    -0.323 OA
HETATM   10  C   LIG     1      14.936  32.101  19.250  1.00  0.00     0.213 C 
ENDBRANCH   7   9
ENDBRANCH   4   7
BRANCH   1  11
HETATM   11  O   LIG     1      17.206  32.168  12.761  1.00  0.00    -0.361 OA
HETATM   12  H   LIG     1      17.588  33.073  12.511  1.00  0.00     0.217 HD
ENDBRANCH   1  11
TORSDOF 3
ENDMDL
MODEL 16
REMARK VINA RESULT:      -5.5      7.989      9.915
REMARK  3 active torsions:
REMARK  status: ('A' for Active; 'I' for Inactive)
REMARK    1  A    between atoms: O_1  and  C_2 
REMARK    2  A    between atoms: C_5  and  C_6 
REMARK    3  A    between atoms: C_6  and  O_7 
ROOT
HETATM    1  C   LIG     1      14.344  31.774  17.744  1.00  0.00     0.065 A 
HETATM    2  C   LIG     1      13.835  30.910  16.772  1.00  0.00     0.037 A 
HETATM    3  C   LIG     1      14.341  30.939  15.469  1.00  0.00     0.020 A 
HETATM    4  C   LIG     1      15.369  31.836  15.123  1.00  0.00     0.039 A 
HETATM    5  C   LIG     1      15.876  32.703  16.108  1.00  0.00     0.020 A 
HETATM    6  C   LIG     1      15.366  32.671  17.410  1.00  0.00     0.037 A 
ENDROOT
BRANCH   4   7
HETATM    7  C   LIG     1      15.910  31.872  13.746  1.00  0.00     0.292 C 
HETATM    8  O   LIG     1      15.968  30.814  13.061  1.00  0.00    -0.259 OA
BRANCH   7   9
HETATM    9  O   LIG     1      16.358  33.082  13.204  1.00  0.00    -0.323 OA
HETATM   10  C   LIG     1      17.738  33.393  13.056  1.00  0.00     0.213 C 
ENDBRANCH   7   9
ENDBRANCH   4   7
BRANCH   1  11
HETATM   11  O   LIG     1      13.828  31.734  19.038  1.00  0.00    -0.361 OA
HETATM   12  H   LIG     1      13.259  30.958  19.357  1.00  0.00     0.217 HD
ENDBRANCH   1  11
TORSDOF 3
ENDMDL
MODEL 17
REMARK VINA RESULT:      -5.3      1.849      2.504
REMARK  3 active torsions:
REMARK  status: ('A' for Active; 'I' for Inactive)
REMARK    1  A    between atoms: O_1  and  C_2 
REMARK    2  A    between atoms: C_5  and  C_6 
REMARK    3  A    between atoms: C_6  and  O_7 
ROOT
HETATM    1  C   LIG     1      18.392  38.387  20.815  1.00  0.00     0.065 A 
HETATM    2  C   LIG     1      18.971  39.181  21.809  1.00  0.00     0.037 A 
HETATM    3  C   LIG     1      18.691  38.937  23.158  1.00  0.00     0.020 A 
HETATM    4  C   LIG     1      17.827  37.890  23.528  1.00  0.00     0.039 A 
HETATM    5  C   LIG     1      17.249  37.095  22.522  1.00  0.00     0.020 A 
HETATM    6  C   LIG     1      17.531  37.343  21.174  1.00  0.00     0.037 A 
ENDROOT
BRANCH   4   7
HETATM    7  C   LIG     1      17.526  37.625  24.953  1.00  0.00     0.292 C 
HETATM    8  O   LIG     1      16.750  38.391  25.588  1.00  0.00    -0.259 OA
BRANCH   7   9
HETATM    9  O   LIG     1      18.104  36.524  25.595  1.00  0.00    -0.323 OA
HETATM   10  C   LIG     1      17.474  35.250  25.651  1.00  0.00     0.213 C 
ENDBRANCH   7   9
ENDBRANCH   4   7
BRANCH   1  11
HETATM   11  O   LIG     1      18.680  38.643  19.476  1.00  0.00    -0.361 OA
HETATM   12  H   LIG     1      19.254  38.012  18.928  1.00  0.00     0.217 HD
ENDBRANCH   1  11
TORSDOF 3
ENDMDL
MODEL 18
REMARK VINA RESULT:      -5.1      9.642     10.986
REMARK  3 active torsions:
REMARK  status: ('A' for Active; 'I' for Inactive)
REMARK    1  A    between atoms: O_1  and  C_2 
REMARK    2  A    between atoms: C_5  and  C_6 
REMARK    3  A    between atoms: C_6  and  O_7 
ROOT
HETATM    1  C   LIG     1      15.516  32.705  15.625  1.00  0.00     0.065 A 
HETATM    2  C   LIG     1      14.563  31.941  16.304  1.00  0.00     0.037 A 
HETATM    3  C   LIG     1      14.162  30.702  15.796  1.00  0.00     0.020 A 
HETATM    4  C   LIG     1      14.715  30.209  14.599  1.00  0.00     0.039 A 
HETATM    5  C   LIG     1      15.674  30.985  13.922  1.00  0.00     0.020 A 
HETATM    6  C   LIG     1      16.071  32.225  14.433  1.00  0.00     0.037 A 
ENDROOT
BRANCH   4   7
HETATM    7  C   LIG     1      14.296  28.898  14.055  1.00  0.00     0.292 C 
HETATM    8  O   LIG     1      15.156  28.112  13.568  1.00  0.00    -0.259 OA
BRANCH   7   9
HETATM    9  O   LIG     1      12.947  28.530  14.081  1.00  0.00    -0.323 OA
HETATM   10  C   LIG     1      12.466  27.329  13.490  1.00  0.00     0.213 C 
ENDBRANCH   7   9
ENDBRANCH   4   7
BRANCH   1  11
HETATM   11  O   LIG     1      15.904  33.939  16.144  1.00  0.00    -0.361 OA
HETATM   12  H   LIG     1      16.601  34.512  15.681  1.00  0.00     0.217 HD
ENDBRANCH   1  11
TORSDOF 3
ENDMDL
MODEL 19
REMARK VINA RESULT:      -4.9      2.051      4.935
REMARK  3 active torsions:
REMARK  status: ('A' for Active; 'I' for Inactive)
REMARK    1  A    between atoms: O_1  and  C_2 
REMARK    2  A    between atoms: C_5  and  C_6 
REMARK    3  A    between atoms: C_6  and  O_7 
ROOT
HETATM    1  C   LIG     1      15.322  34.956  21.316  1.00  0.00     0.065 A 
HETATM    2  C   LIG     1      16.008  35.054  20.103  1.00  0.00     0.037 A 
HETATM    3  C   LIG     1      17.030  35.996  19.945  1.00  0.00     0.020 A 
HETATM    4  C   LIG     1      17.380  36.852  21.007  1.00  0.00     0.039 A 
HETATM    5  C   LIG     1      16.684  36.746  22.225  1.00  0.00     0.020 A 
HETATM    6  C   LIG     1      15.662  35.803  22.377  1.00  0.00     0.037 A 
ENDROOT
BRANCH   4   7
HETATM    7  C   LIG     1      18.461  37.850  20.849  1.00  0.00     0.292 C 
HETATM    8  O   LIG     1      18.521  38.844  21.624  1.00  0.00    -0.259 OA
BRANCH   7   9
HETATM    9  O   LIG     1      19.416  37.690  19.840  1.00  0.00    -0.323 OA
HETATM   10  C   LIG     1      20.190  38.773  19.336  1.00  0.00     0.213 C 
ENDBRANCH   7   9
ENDBRANCH   4   7
BRANCH   1  11
HETATM   11  O   LIG     1      14.305  34.013  21.456  1.00  0.00    -0.361 OA
HETATM   12  H   LIG     1      14.161  33.284  20.767  1.00  0.00     0.217 HD
ENDBRANCH   1  11
TORSDOF 3
ENDMDL
MODEL 20
REMARK VINA RESULT:      -4.8      6.893      8.441
REMARK  3 active torsions:
REMARK  status: ('A' for Active; 'I' for Inactive)
REMARK    1  A    between atoms: O_1  and  C_2 
REMARK    2  A    between atoms: C_5  and  C_6 
REMARK    3  A    between atoms: C_6  and  O_7 
ROOT
HETATM    1  C   LIG     1      15.552  33.929  19.179  1.00  0.00     0.065 A 
HETATM    2  C   LIG     1      15.298  34.292  17.853  1.00  0.00     0.037 A 
HETATM    3  C   LIG     1      14.719  33.374  16.970  1.00  0.00     0.020 A 
HETATM    4  C   LIG     1      14.385  32.078  17.407  1.00  0.00     0.039 A 
HETATM    5  C   LIG     1      14.644  31.722  18.743  1.00  0.00     0.020 A 
HETATM    6  C   LIG     1      15.223  32.643  19.622  1.00  0.00     0.037 A 
ENDROOT
BRANCH   4   7
HETATM    7  C   LIG     1      13.772  31.102  16.479  1.00  0.00     0.292 C 
HETATM    8  O   LIG     1      12.694  30.524  16.791  1.00  0.00    -0.259 OA
BRANCH   7   9
HETATM    9  O   LIG     1      14.389  30.820  15.256  1.00  0.00    -0.323 OA
HETATM   10  C   LIG     1      14.024  29.706  14.450  1.00  0.00     0.213 C 
ENDBRANCH   7   9
ENDBRANCH   4   7
BRANCH   1  11
HETATM   11  O   LIG     1      16.130  34.855  20.046  1.00  0.00    -0.361 OA
HETATM   12  H   LIG     1      15.594  35.624  20.432  1.00  0.00     0.217 HD
ENDBRANCH   1  11
TORSDOF 3
ENDMDL
