MODEL 1
REMARK VINA RESULT:      -7.0      0.000      0.000
REMARK  1 active torsions:
REMARK  status: ('A' for Active; 'I' for Inactive)
REMARK    1  A    between atoms: C_2  and  C_3 
ROOT
HETATM    1  C   LIG     1      17.350  37.020  21.441  1.00  0.00    -0.055 A 
HETATM    2  C   LIG     1      18.005  36.370  20.380  1.00  0.00     0.008 A 
HETATM    3  C   LIG     1      18.975  37.040  19.628  1.00  0.00     0.007 A 
HETATM    4  C   LIG     1      19.298  38.373  19.915  1.00  0.00    -0.062 A 
HETATM    5  C   LIG     1      20.367  39.078  19.134  1.00  0.00     0.048 C 
HETATM    6  C   LIG     1      18.661  39.020  20.984  1.00  0.00     0.007 A 
HETATM    7  C   LIG     1      17.692  38.354  21.737  1.00  0.00     0.008 A 
ENDROOT
BRANCH   1   8
HETATM    8  C   LIG     1      16.299  36.282  22.249  1.00  0.00     0.010 C 
HETATM    9  C   LIG     1      15.172  35.763  21.348  1.00  0.00     0.015 C 
HETATM   10  C   LIG     1      16.926  35.141  23.059  1.00  0.00     0.015 C 
ENDBRANCH   1   8
TORSDOF 1
ENDMDL
MODEL 2
REMARK VINA RESULT:      -6.9      2.204      4.475
REMARK  1 active torsions:
REMARK  status: ('A' for Active; 'I' for Inactive)
REMARK    1  A    between atoms: C_2  and  C_3 
ROOT
HETATM    1  C   LIG     1      16.852  36.300  22.965  1.00  0.00    -0.055 A 
HETATM    2  C   LIG     1      17.024  35.075  23.633  1.00  0.00     0.008 A 
HETATM    3  C   LIG     1      17.515  35.043  24.941  1.00  0.00     0.007 A 
HETATM    4  C   LIG     1      17.854  36.232  25.601  1.00  0.00    -0.062 A 
HETATM    5  C   LIG     1      18.343  36.199  27.018  1.00  0.00     0.048 C 
HETATM    6  C   LIG     1      17.668  37.458  24.946  1.00  0.00     0.007 A 
HETATM    7  C   LIG     1      17.177  37.493  23.639  1.00  0.00     0.008 A 
ENDROOT
BRANCH   1   8
HETATM    8  C   LIG     1      16.318  36.322  21.545  1.00  0.00     0.010 C 
HETATM    9  C   LIG     1      17.455  36.183  20.525  1.00  0.00     0.015 C 
HETATM   10  C   LIG     1      15.255  35.236  21.337  1.00  0.00     0.015 C 
ENDBRANCH   1   8
TORSDOF 1
ENDMDL
MODEL 3
REMARK VINA RESULT:      -6.8      0.740      1.896
REMARK  1 active torsions:
REMARK  status: ('A' for Active; 'I' for Inactive)
REMARK    1  A    between atoms: C_2  and  C_3 
ROOT
HETATM    1  C   LIG     1      17.524  37.327  21.603  1.00  0.00    -0.055 A 
HETATM    2  C   LIG     1      17.916  38.670  21.741  1.00  0.00     0.008 A 
HETATM    3  C   LIG     1      18.807  39.246  20.830  1.00  0.00     0.007 A 
HETATM    4  C   LIG     1      19.332  38.486  19.776  1.00  0.00    -0.062 A 
HETATM    5  C   LIG     1      20.258  39.116  18.777  1.00  0.00     0.048 C 
HETATM    6  C   LIG     1      18.931  37.151  19.624  1.00  0.00     0.007 A 
HETATM    7  C   LIG     1      18.040  36.573  20.531  1.00  0.00     0.008 A 
ENDROOT
BRANCH   1   8
HETATM    8  C   LIG     1      16.556  36.714  22.598  1.00  0.00     0.010 C 
HETATM    9  C   LIG     1      16.853  35.225  22.813  1.00  0.00     0.015 C 
HETATM   10  C   LIG     1      16.573  37.477  23.928  1.00  0.00     0.015 C 
ENDBRANCH   1   8
TORSDOF 1
ENDMDL
MODEL 4
REMARK VINA RESULT:      -6.5      1.951      4.760
REMARK  1 active torsions:
REMARK  status: ('A' for Active; 'I' for Inactive)
REMARK    1  A    between atoms: C_2  and  C_3 
ROOT
HETATM    1  C   LIG     1      17.465  37.213  22.901  1.00  0.00    -0.055 A 
HETATM    2  C   LIG     1      17.140  35.849  22.815  1.00  0.00     0.008 A 
HETATM    3  C   LIG     1      17.112  35.052  23.963  1.00  0.00     0.007 A 
HETATM    4  C   LIG     1      17.422  35.601  25.215  1.00  0.00    -0.062 A 
HETATM    5  C   LIG     1      17.354  34.755  26.451  1.00  0.00     0.048 C 
HETATM    6  C   LIG     1      17.730  36.966  25.309  1.00  0.00     0.007 A 
HETATM    7  C   LIG     1      17.758  37.765  24.164  1.00  0.00     0.008 A 
ENDROOT
BRANCH   1   8
HETATM    8  C   LIG     1      17.491  38.068  21.648  1.00  0.00     0.010 C 
HETATM    9  C   LIG     1      18.223  39.392  21.896  1.00  0.00     0.015 C 
HETATM   10  C   LIG     1      18.115  37.305  20.472  1.00  0.00     0.015 C 
ENDBRANCH   1   8
TORSDOF 1
ENDMDL
MODEL 5
REMARK VINA RESULT:      -6.3      1.208      4.365
REMARK  1 active torsions:
REMARK  status: ('A' for Active; 'I' for Inactive)
REMARK    1  A    between atoms: C_2  and  C_3 
ROOT
HETATM    1  C   LIG     1      18.597  37.999  20.382  1.00  0.00    -0.055 A 
HETATM    2  C   LIG     1      18.559  39.051  21.314  1.00  0.00     0.008 A 
HETATM    3  C   LIG     1      17.839  38.916  22.505  1.00  0.00     0.007 A 
HETATM    4  C   LIG     1      17.135  37.736  22.779  1.00  0.00    -0.062 A 
HETATM    5  C   LIG     1      16.396  37.578  24.075  1.00  0.00     0.048 C 
HETATM    6  C   LIG     1      17.185  36.677  21.861  1.00  0.00     0.007 A 
HETATM    7  C   LIG     1      17.903  36.808  20.670  1.00  0.00     0.008 A 
ENDROOT
BRANCH   1   8
HETATM    8  C   LIG     1      19.382  38.157  19.093  1.00  0.00     0.010 C 
HETATM    9  C   LIG     1      18.675  39.117  18.128  1.00  0.00     0.015 C 
HETATM   10  C   LIG     1      20.818  38.616  19.373  1.00  0.00     0.015 C 
ENDBRANCH   1   8
TORSDOF 1
ENDMDL
MODEL 6
REMARK VINA RESULT:      -6.2      1.592      4.158
REMARK  1 active torsions:
REMARK  status: ('A' for Active; 'I' for Inactive)
REMARK    1  A    between atoms: C_2  and  C_3 
ROOT
HETATM    1  C   LIG     1      18.345  38.206  21.113  1.00  0.00    -0.055 A 
HETATM    2  C   LIG     1      17.411  37.232  21.507  1.00  0.00     0.008 A 
HETATM    3  C   LIG     1      17.016  37.128  22.844  1.00  0.00     0.007 A 
HETATM    4  C   LIG     1      17.557  37.986  23.812  1.00  0.00    -0.062 A 
HETATM    5  C   LIG     1      17.103  37.900  25.239  1.00  0.00     0.048 C 
HETATM    6  C   LIG     1      18.476  38.970  23.421  1.00  0.00     0.007 A 
HETATM    7  C   LIG     1      18.873  39.077  22.086  1.00  0.00     0.008 A 
ENDROOT
BRANCH   1   8
HETATM    8  C   LIG     1      18.766  38.308  19.659  1.00  0.00     0.010 C 
HETATM    9  C   LIG     1      20.185  38.876  19.532  1.00  0.00     0.015 C 
HETATM   10  C   LIG     1      18.650  36.952  18.953  1.00  0.00     0.015 C 
ENDBRANCH   1   8
TORSDOF 1
ENDMDL
MODEL 7
REMARK VINA RESULT:      -6.2      2.418      4.146
REMARK  1 active torsions:
REMARK  status: ('A' for Active; 'I' for Inactive)
REMARK    1  A    between atoms: C_2  and  C_3 
ROOT
HETATM    1  C   LIG     1      17.302  36.168  24.313  1.00  0.00    -0.055 A 
HETATM    2  C   LIG     1      17.237  37.334  23.531  1.00  0.00     0.008 A 
HETATM    3  C   LIG     1      17.022  37.253  22.152  1.00  0.00     0.007 A 
HETATM    4  C   LIG     1      16.882  36.006  21.529  1.00  0.00    -0.062 A 
HETATM    5  C   LIG     1      16.612  35.921  20.056  1.00  0.00     0.048 C 
HETATM    6  C   LIG     1      16.928  34.839  22.307  1.00  0.00     0.007 A 
HETATM    7  C   LIG     1      17.142  34.918  23.685  1.00  0.00     0.008 A 
ENDROOT
BRANCH   1   8
HETATM    8  C   LIG     1      17.535  36.270  25.809  1.00  0.00     0.010 C 
HETATM    9  C   LIG     1      17.722  34.882  26.435  1.00  0.00     0.015 C 
HETATM   10  C   LIG     1      18.729  37.181  26.122  1.00  0.00     0.015 C 
ENDBRANCH   1   8
TORSDOF 1
ENDMDL
MODEL 8
REMARK VINA RESULT:      -5.8      1.892      4.264
REMARK  1 active torsions:
REMARK  status: ('A' for Active; 'I' for Inactive)
REMARK    1  A    between atoms: C_2  and  C_3 
ROOT
HETATM    1  C   LIG     1      16.614  37.266  22.134  1.00  0.00    -0.055 A 
HETATM    2  C   LIG     1      15.263  36.882  22.106  1.00  0.00     0.008 A 
HETATM    3  C   LIG     1      14.878  35.681  21.502  1.00  0.00     0.007 A 
HETATM    4  C   LIG     1      15.835  34.851  20.905  1.00  0.00    -0.062 A 
HETATM    5  C   LIG     1      15.427  33.544  20.292  1.00  0.00     0.048 C 
HETATM    6  C   LIG     1      17.188  35.220  20.945  1.00  0.00     0.007 A 
HETATM    7  C   LIG     1      17.575  36.419  21.548  1.00  0.00     0.008 A 
ENDROOT
BRANCH   1   8
HETATM    8  C   LIG     1      17.019  38.572  22.793  1.00  0.00     0.010 C 
HETATM    9  C   LIG     1      17.393  38.356  24.264  1.00  0.00     0.015 C 
HETATM   10  C   LIG     1      18.164  39.246  22.027  1.00  0.00     0.015 C 
ENDBRANCH   1   8
TORSDOF 1
ENDMDL
MODEL 9
REMARK VINA RESULT:      -5.7      7.873      9.712
REMARK  1 active torsions:
REMARK  status: ('A' for Active; 'I' for Inactive)
REMARK    1  A    between atoms: C_2  and  C_3 
ROOT
HETATM    1  C   LIG     1      15.109  31.695  15.612  1.00  0.00    -0.055 A 
HETATM    2  C   LIG     1      15.571  30.990  14.486  1.00  0.00     0.008 A 
HETATM    3  C   LIG     1      14.810  29.953  13.938  1.00  0.00     0.007 A 
HETATM    4  C   LIG     1      13.583  29.593  14.512  1.00  0.00    -0.062 A 
HETATM    5  C   LIG     1      12.750  28.507  13.899  1.00  0.00     0.048 C 
HETATM    6  C   LIG     1      13.110  30.305  15.624  1.00  0.00     0.007 A 
HETATM    7  C   LIG     1      13.867  31.342  16.174  1.00  0.00     0.008 A 
ENDROOT
BRANCH   1   8
HETATM    8  C   LIG     1      15.943  32.818  16.198  1.00  0.00     0.010 C 
HETATM    9  C   LIG     1      16.902  33.399  15.151  1.00  0.00     0.015 C 
HETATM   10  C   LIG     1      15.053  33.913  16.797  1.00  0.00     0.015 C 
ENDBRANCH   1   8
TORSDOF 1
ENDMDL
MODEL 10
REMARK VINA RESULT:      -5.6      7.309      9.232
REMARK  1 active torsions:
REMARK  status: ('A' for Active; 'I' for Inactive)
REMARK    1  A    between atoms: C_2  and  C_3 
ROOT
HETATM    1  C   LIG     1      14.727  31.819  16.408  1.00  0.00    -0.055 A 
HETATM    2  C   LIG     1      13.462  31.311  16.750  1.00  0.00     0.008 A 
HETATM    3  C   LIG     1      12.843  30.349  15.946  1.00  0.00     0.007 A 
HETATM    4  C   LIG     1      13.471  29.889  14.781  1.00  0.00    -0.062 A 
HETATM    5  C   LIG     1      12.823  28.828  13.940  1.00  0.00     0.048 C 
HETATM    6  C   LIG     1      14.741  30.379  14.444  1.00  0.00     0.007 A 
HETATM    7  C   LIG     1      15.362  31.339  15.246  1.00  0.00     0.008 A 
ENDROOT
BRANCH   1   8
HETATM    8  C   LIG     1      15.389  32.862  17.289  1.00  0.00     0.010 C 
HETATM    9  C   LIG     1      14.878  34.269  16.959  1.00  0.00     0.015 C 
HETATM   10  C   LIG     1      15.190  32.538  18.775  1.00  0.00     0.015 C 
ENDBRANCH   1   8
TORSDOF 1
ENDMDL
MODEL 11
REMARK VINA RESULT:      -5.6      1.392      2.343
REMARK  1 active torsions:
REMARK  status: ('A' for Active; 'I' for Inactive)
REMARK    1  A    between atoms: C_2  and  C_3 
ROOT
HETATM    1  C   LIG     1      16.750  35.885  20.865  1.00  0.00    -0.055 A 
HETATM    2  C   LIG     1      17.820  36.353  20.082  1.00  0.00     0.008 A 
HETATM    3  C   LIG     1      18.465  37.551  20.405  1.00  0.00     0.007 A 
HETATM    4  C   LIG     1      18.044  38.307  21.507  1.00  0.00    -0.062 A 
HETATM    5  C   LIG     1      18.762  39.572  21.876  1.00  0.00     0.048 C 
HETATM    6  C   LIG     1      16.989  37.837  22.302  1.00  0.00     0.007 A 
HETATM    7  C   LIG     1      16.343  36.640  21.982  1.00  0.00     0.008 A 
ENDROOT
BRANCH   1   8
HETATM    8  C   LIG     1      16.059  34.584  20.504  1.00  0.00     0.010 C 
HETATM    9  C   LIG     1      14.902  34.288  21.466  1.00  0.00     0.015 C 
HETATM   10  C   LIG     1      15.575  34.600  19.049  1.00  0.00     0.015 C 
ENDBRANCH   1   8
TORSDOF 1
ENDMDL
MODEL 12
REMARK VINA RESULT:      -5.5      7.699      8.727
REMARK  1 active torsions:
REMARK  status: ('A' for Active; 'I' for Inactive)
REMARK    1  A    between atoms: C_2  and  C_3 
ROOT
HETATM    1  C   LIG     1      15.014  31.273  15.061  1.00  0.00    -0.055 A 
HETATM    2  C   LIG     1      15.476  31.170  13.737  1.00  0.00     0.008 A 
HETATM    3  C   LIG     1      16.470  32.031  13.263  1.00  0.00     0.007 A 
HETATM    4  C   LIG     1      17.010  33.018  14.099  1.00  0.00    -0.062 A 
HETATM    5  C   LIG     1      18.105  33.915  13.602  1.00  0.00     0.048 C 
HETATM    6  C   LIG     1      16.567  33.113  15.426  1.00  0.00     0.007 A 
HETATM    7  C   LIG     1      15.574  32.254  15.903  1.00  0.00     0.008 A 
ENDROOT
BRANCH   1   8
HETATM    8  C   LIG     1      13.935  30.332  15.564  1.00  0.00     0.010 C 
HETATM    9  C   LIG     1      12.863  31.093  16.353  1.00  0.00     0.015 C 
HETATM   10  C   LIG     1      13.311  29.540  14.409  1.00  0.00     0.015 C 
ENDBRANCH   1   8
TORSDOF 1
ENDMDL
MODEL 13
REMARK VINA RESULT:      -5.5      8.263      9.753
REMARK  1 active torsions:
REMARK  status: ('A' for Active; 'I' for Inactive)
REMARK    1  A    between atoms: C_2  and  C_3 
ROOT
HETATM    1  C   LIG     1      14.486  30.263  14.668  1.00  0.00    -0.055 A 
HETATM    2  C   LIG     1      13.581  30.519  15.713  1.00  0.00     0.008 A 
HETATM    3  C   LIG     1      13.769  31.614  16.562  1.00  0.00     0.007 A 
HETATM    4  C   LIG     1      14.869  32.464  16.390  1.00  0.00    -0.062 A 
HETATM    5  C   LIG     1      15.048  33.661  17.276  1.00  0.00     0.048 C 
HETATM    6  C   LIG     1      15.765  32.224  15.338  1.00  0.00     0.007 A 
HETATM    7  C   LIG     1      15.581  31.131  14.488  1.00  0.00     0.008 A 
ENDROOT
BRANCH   1   8
HETATM    8  C   LIG     1      14.271  29.072  13.753  1.00  0.00     0.010 C 
HETATM    9  C   LIG     1      15.448  28.092  13.837  1.00  0.00     0.015 C 
HETATM   10  C   LIG     1      12.945  28.368  14.064  1.00  0.00     0.015 C 
ENDBRANCH   1   8
TORSDOF 1
ENDMDL
MODEL 14
REMARK VINA RESULT:      -5.5      1.036      4.404
REMARK  1 active torsions:
REMARK  status: ('A' for Active; 'I' for Inactive)
REMARK    1  A    between atoms: C_2  and  C_3 
ROOT
HETATM    1  C   LIG     1      17.918  37.505  20.988  1.00  0.00    -0.055 A 
HETATM    2  C   LIG     1      17.036  37.545  22.082  1.00  0.00     0.008 A 
HETATM    3  C   LIG     1      16.049  36.566  22.234  1.00  0.00     0.007 A 
HETATM    4  C   LIG     1      15.918  35.539  21.289  1.00  0.00    -0.062 A 
HETATM    5  C   LIG     1      14.885  34.468  21.474  1.00  0.00     0.048 C 
HETATM    6  C   LIG     1      16.806  35.484  20.206  1.00  0.00     0.007 A 
HETATM    7  C   LIG     1      17.794  36.460  20.051  1.00  0.00     0.008 A 
ENDROOT
BRANCH   1   8
HETATM    8  C   LIG     1      18.985  38.572  20.834  1.00  0.00     0.010 C 
HETATM    9  C   LIG     1      19.179  38.952  19.362  1.00  0.00     0.015 C 
HETATM   10  C   LIG     1      18.658  39.807  21.684  1.00  0.00     0.015 C 
ENDBRANCH   1   8
TORSDOF 1
ENDMDL
MODEL 15
REMARK VINA RESULT:      -5.4      7.652      9.082
REMARK  1 active torsions:
REMARK  status: ('A' for Active; 'I' for Inactive)
REMARK    1  A    between atoms: C_2  and  C_3 
ROOT
HETATM    1  C   LIG     1      14.577  30.657  15.310  1.00  0.00    -0.055 A 
HETATM    2  C   LIG     1      15.579  31.562  14.920  1.00  0.00     0.008 A 
HETATM    3  C   LIG     1      15.744  32.773  15.599  1.00  0.00     0.007 A 
HETATM    4  C   LIG     1      14.904  33.106  16.670  1.00  0.00    -0.062 A 
HETATM    5  C   LIG     1      15.108  34.387  17.423  1.00  0.00     0.048 C 
HETATM    6  C   LIG     1      13.914  32.199  17.074  1.00  0.00     0.007 A 
HETATM    7  C   LIG     1      13.746  30.988  16.398  1.00  0.00     0.008 A 
ENDROOT
BRANCH   1   8
HETATM    8  C   LIG     1      14.407  29.346  14.565  1.00  0.00     0.010 C 
HETATM    9  C   LIG     1      12.960  29.162  14.092  1.00  0.00     0.015 C 
HETATM   10  C   LIG     1      15.388  29.247  13.390  1.00  0.00     0.015 C 
ENDBRANCH   1   8
TORSDOF 1
ENDMDL
MODEL 16
REMARK VINA RESULT:      -5.3      4.629      6.447
REMARK  1 active torsions:
REMARK  status: ('A' for Active; 'I' for Inactive)
REMARK    1  A    between atoms: C_2  and  C_3 
ROOT
HETATM    1  C   LIG     1      14.914  32.885  17.695  1.00  0.00    -0.055 A 
HETATM    2  C   LIG     1      14.991  32.101  18.859  1.00  0.00     0.008 A 
HETATM    3  C   LIG     1      15.372  32.674  20.076  1.00  0.00     0.007 A 
HETATM    4  C   LIG     1      15.696  34.035  20.148  1.00  0.00    -0.062 A 
HETATM    5  C   LIG     1      16.066  34.657  21.462  1.00  0.00     0.048 C 
HETATM    6  C   LIG     1      15.603  34.826  18.994  1.00  0.00     0.007 A 
HETATM    7  C   LIG     1      15.223  34.257  17.776  1.00  0.00     0.008 A 
ENDROOT
BRANCH   1   8
HETATM    8  C   LIG     1      14.499  32.252  16.380  1.00  0.00     0.010 C 
HETATM    9  C   LIG     1      15.705  32.063  15.452  1.00  0.00     0.015 C 
HETATM   10  C   LIG     1      13.768  30.924  16.612  1.00  0.00     0.015 C 
ENDBRANCH   1   8
TORSDOF 1
ENDMDL
MODEL 17
REMARK VINA RESULT:      -5.2      7.130      9.093
REMARK  1 active torsions:
REMARK  status: ('A' for Active; 'I' for Inactive)
REMARK    1  A    between atoms: C_2  and  C_3 
ROOT
HETATM    1  C   LIG     1      16.309  32.504  14.951  1.00  0.00    -0.055 A 
HETATM    2  C   LIG     1      15.823  31.439  14.173  1.00  0.00     0.008 A 
HETATM    3  C   LIG     1      14.699  30.716  14.584  1.00  0.00     0.007 A 
HETATM    4  C   LIG     1      14.050  31.036  15.784  1.00  0.00    -0.062 A 
HETATM    5  C   LIG     1      12.821  30.285  16.204  1.00  0.00     0.048 C 
HETATM    6  C   LIG     1      14.520  32.109  16.555  1.00  0.00     0.007 A 
HETATM    7  C   LIG     1      15.642  32.833  16.148  1.00  0.00     0.008 A 
ENDROOT
BRANCH   1   8
HETATM    8  C   LIG     1      17.529  33.281  14.495  1.00  0.00     0.010 C 
HETATM    9  C   LIG     1      17.713  33.181  12.975  1.00  0.00     0.015 C 
HETATM   10  C   LIG     1      17.452  34.745  14.945  1.00  0.00     0.015 C 
ENDBRANCH   1   8
TORSDOF 1
ENDMDL
MODEL 18
REMARK VINA RESULT:      -5.2      6.455      8.025
REMARK  1 active torsions:
REMARK  status: ('A' for Active; 'I' for Inactive)
REMARK    1  A    between atoms: C_2  and  C_3 
ROOT
HETATM    1  C   LIG     1      14.933  32.303  17.230  1.00  0.00    -0.055 A 
HETATM    2  C   LIG     1      15.948  32.620  16.311  1.00  0.00     0.008 A 
HETATM    3  C   LIG     1      16.018  31.966  15.077  1.00  0.00     0.007 A 
HETATM    4  C   LIG     1      15.084  30.975  14.746  1.00  0.00    -0.062 A 
HETATM    5  C   LIG     1      15.137  30.302  13.407  1.00  0.00     0.048 C 
HETATM    6  C   LIG     1      14.059  30.667  15.652  1.00  0.00     0.007 A 
HETATM    7  C   LIG     1      13.986  31.319  16.885  1.00  0.00     0.008 A 
ENDROOT
BRANCH   1   8
HETATM    8  C   LIG     1      14.867  33.020  18.565  1.00  0.00     0.010 C 
HETATM    9  C   LIG     1      15.561  32.206  19.665  1.00  0.00     0.015 C 
HETATM   10  C   LIG     1      15.463  34.430  18.465  1.00  0.00     0.015 C 
ENDBRANCH   1   8
TORSDOF 1
ENDMDL
MODEL 19
REMARK VINA RESULT:      -5.2      4.994      6.812
REMARK  1 active torsions:
REMARK  status: ('A' for Active; 'I' for Inactive)
REMARK    1  A    between atoms: C_2  and  C_3 
ROOT
HETATM    1  C   LIG     1      14.648  32.171  17.702  1.00  0.00    -0.055 A 
HETATM    2  C   LIG     1      14.945  33.490  17.317  1.00  0.00     0.008 A 
HETATM    3  C   LIG     1      15.395  34.419  18.260  1.00  0.00     0.007 A 
HETATM    4  C   LIG     1      15.543  34.051  19.604  1.00  0.00    -0.062 A 
HETATM    5  C   LIG     1      16.064  35.038  20.606  1.00  0.00     0.048 C 
HETATM    6  C   LIG     1      15.265  32.732  19.990  1.00  0.00     0.007 A 
HETATM    7  C   LIG     1      14.815  31.801  19.050  1.00  0.00     0.008 A 
ENDROOT
BRANCH   1   8
HETATM    8  C   LIG     1      14.160  31.172  16.670  1.00  0.00     0.010 C 
HETATM    9  C   LIG     1      12.642  31.272  16.477  1.00  0.00     0.015 C 
HETATM   10  C   LIG     1      14.898  31.349  15.337  1.00  0.00     0.015 C 
ENDBRANCH   1   8
TORSDOF 1
ENDMDL
MODEL 20
REMARK VINA RESULT:      -5.0      6.809      7.926
REMARK  1 active torsions:
REMARK  status: ('A' for Active; 'I' for Inactive)
REMARK    1  A    between atoms: C_2  and  C_3 
ROOT
HETATM    1  C   LIG     1      15.011  32.266  15.864  1.00  0.00    -0.055 A 
HETATM    2  C   LIG     1      15.860  33.349  16.151  1.00  0.00     0.008 A 
HETATM    3  C   LIG     1      16.876  33.709  15.260  1.00  0.00     0.007 A 
HETATM    4  C   LIG     1      17.068  32.986  14.075  1.00  0.00    -0.062 A 
HETATM    5  C   LIG     1      18.132  33.399  13.101  1.00  0.00     0.048 C 
HETATM    6  C   LIG     1      16.213  31.916  13.775  1.00  0.00     0.007 A 
HETATM    7  C   LIG     1      15.197  31.554  14.663  1.00  0.00     0.008 A 
ENDROOT
BRANCH   1   8
HETATM    8  C   LIG     1      13.913  31.884  16.839  1.00  0.00     0.010 C 
HETATM    9  C   LIG     1      13.180  30.619  16.379  1.00  0.00     0.015 C 
HETATM   10  C   LIG     1      14.469  31.714  18.259  1.00  0.00     0.015 C 
ENDBRANCH   1   8
TORSDOF 1
ENDMDL
