REMARK  1 active torsions:
REMARK  status: ('A' for Active; 'I' for Inactive)
REMARK    1  A    between atoms: C_2  and  C_3 
ROOT
HETATM    1  C   LIG     1      -0.461  -0.197  -0.113  1.00  0.00    -0.055 A 
HETATM    2  C   LIG     1       0.366  -0.799  -1.077  1.00  0.00     0.008 A 
HETATM    3  C   LIG     1       1.746  -0.574  -1.068  1.00  0.00     0.007 A 
HETATM    4  C   LIG     1       2.321   0.266  -0.105  1.00  0.00    -0.062 A 
HETATM    5  C   LIG     1       3.806   0.475  -0.072  1.00  0.00     0.048 C 
HETATM    6  C   LIG     1       1.503   0.855   0.870  1.00  0.00     0.007 A 
HETATM    7  C   LIG     1       0.124   0.632   0.864  1.00  0.00     0.008 A 
ENDROOT
BRANCH   1   8
HETATM    8  C   LIG     1      -1.957  -0.449  -0.133  1.00  0.00     0.010 C 
HETATM    9  C   LIG     1      -2.417  -1.150   1.151  1.00  0.00     0.015 C 
HETATM   10  C   LIG     1      -2.734   0.854  -0.358  1.00  0.00     0.015 C 
ENDBRANCH   1   8
TORSDOF 1
