MODEL 1
REMARK VINA RESULT:      -6.4      0.000      0.000
REMARK  3 active torsions:
REMARK  status: ('A' for Active; 'I' for Inactive)
REMARK    1  A    between atoms: O_1  and  C_2 
REMARK    2  A    between atoms: C_5  and  C_6 
REMARK    3  A    between atoms: C_6  and  O_7 
ROOT
HETATM    1  C   LIG     1      19.650  38.771  19.787  1.00  0.00     0.065 A 
HETATM    2  C   LIG     1      19.352  37.449  19.444  1.00  0.00     0.037 A 
HETATM    3  C   LIG     1      18.395  36.732  20.167  1.00  0.00     0.021 A 
HETATM    4  C   LIG     1      17.721  37.331  21.247  1.00  0.00     0.037 A 
HETATM    5  C   LIG     1      18.026  38.661  21.587  1.00  0.00     0.021 A 
HETATM    6  C   LIG     1      18.984  39.377  20.861  1.00  0.00     0.037 A 
ENDROOT
BRANCH   4   7
HETATM    7  C   LIG     1      16.709  36.569  22.012  1.00  0.00     0.176 C 
HETATM    8  O   LIG     1      15.598  37.093  22.299  1.00  0.00    -0.646 OA
BRANCH   7   9
HETATM    9  O   LIG     1      16.974  35.265  22.422  1.00  0.00    -0.773 OA
HETATM   10  H   LIG     1      17.165  35.054  23.394  1.00  0.00     0.167 HD
ENDBRANCH   7   9
ENDBRANCH   4   7
BRANCH   1  11
HETATM   11  O   LIG     1      20.606  39.473  19.056  1.00  0.00    -0.361 OA
HETATM   12  H   LIG     1      20.382  39.902  18.166  1.00  0.00     0.217 HD
ENDBRANCH   1  11
TORSDOF 3
ENDMDL
MODEL 2
REMARK VINA RESULT:      -5.9      2.818      4.174
REMARK  3 active torsions:
REMARK  status: ('A' for Active; 'I' for Inactive)
REMARK    1  A    between atoms: O_1  and  C_2 
REMARK    2  A    between atoms: C_5  and  C_6 
REMARK    3  A    between atoms: C_6  and  O_7 
ROOT
HETATM    1  C   LIG     1      17.028  36.050  21.450  1.00  0.00     0.065 A 
HETATM    2  C   LIG     1      17.251  37.410  21.681  1.00  0.00     0.037 A 
HETATM    3  C   LIG     1      17.398  37.889  22.986  1.00  0.00     0.021 A 
HETATM    4  C   LIG     1      17.321  37.009  24.081  1.00  0.00     0.037 A 
HETATM    5  C   LIG     1      17.095  35.641  23.841  1.00  0.00     0.021 A 
HETATM    6  C   LIG     1      16.949  35.165  22.533  1.00  0.00     0.037 A 
ENDROOT
BRANCH   4   7
HETATM    7  C   LIG     1      17.475  37.518  25.461  1.00  0.00     0.176 C 
HETATM    8  O   LIG     1      17.846  36.747  26.388  1.00  0.00    -0.646 OA
BRANCH   7   9
HETATM    9  O   LIG     1      17.213  38.855  25.749  1.00  0.00    -0.773 OA
HETATM   10  H   LIG     1      16.949  39.143  26.684  1.00  0.00     0.167 HD
ENDBRANCH   7   9
ENDBRANCH   4   7
BRANCH   1  11
HETATM   11  O   LIG     1      16.884  35.588  20.144  1.00  0.00    -0.361 OA
HETATM   12  H   LIG     1      17.684  35.477  19.530  1.00  0.00     0.217 HD
ENDBRANCH   1  11
TORSDOF 3
ENDMDL
MODEL 3
REMARK VINA RESULT:      -5.9      3.319      5.319
REMARK  3 active torsions:
REMARK  status: ('A' for Active; 'I' for Inactive)
REMARK    1  A    between atoms: O_1  and  C_2 
REMARK    2  A    between atoms: C_5  and  C_6 
REMARK    3  A    between atoms: C_6  and  O_7 
ROOT
HETATM    1  C   LIG     1      17.844  35.537  25.602  1.00  0.00     0.065 A 
HETATM    2  C   LIG     1      18.074  36.880  25.914  1.00  0.00     0.037 A 
HETATM    3  C   LIG     1      17.706  37.886  25.016  1.00  0.00     0.021 A 
HETATM    4  C   LIG     1      17.101  37.559  23.789  1.00  0.00     0.037 A 
HETATM    5  C   LIG     1      16.873  36.205  23.481  1.00  0.00     0.021 A 
HETATM    6  C   LIG     1      17.242  35.201  24.382  1.00  0.00     0.037 A 
ENDROOT
BRANCH   4   7
HETATM    7  C   LIG     1      16.713  38.625  22.839  1.00  0.00     0.176 C 
HETATM    8  O   LIG     1      17.580  39.170  22.103  1.00  0.00    -0.646 OA
BRANCH   7   9
HETATM    9  O   LIG     1      15.386  39.036  22.749  1.00  0.00    -0.773 OA
HETATM   10  H   LIG     1      15.048  39.827  23.284  1.00  0.00     0.167 HD
ENDBRANCH   7   9
ENDBRANCH   4   7
BRANCH   1  11
HETATM   11  O   LIG     1      18.216  34.546  26.508  1.00  0.00    -0.361 OA
HETATM   12  H   LIG     1      17.824  34.508  27.442  1.00  0.00     0.217 HD
ENDBRANCH   1  11
TORSDOF 3
ENDMDL
MODEL 4
REMARK VINA RESULT:      -5.8      7.966      9.263
REMARK  3 active torsions:
REMARK  status: ('A' for Active; 'I' for Inactive)
REMARK    1  A    between atoms: O_1  and  C_2 
REMARK    2  A    between atoms: C_5  and  C_6 
REMARK    3  A    between atoms: C_6  and  O_7 
ROOT
HETATM    1  C   LIG     1      14.182  30.077  14.641  1.00  0.00     0.065 A 
HETATM    2  C   LIG     1      13.401  30.489  15.725  1.00  0.00     0.037 A 
HETATM    3  C   LIG     1      13.769  31.610  16.474  1.00  0.00     0.021 A 
HETATM    4  C   LIG     1      14.929  32.336  16.147  1.00  0.00     0.037 A 
HETATM    5  C   LIG     1      15.711  31.916  15.056  1.00  0.00     0.021 A 
HETATM    6  C   LIG     1      15.339  30.793  14.308  1.00  0.00     0.037 A 
ENDROOT
BRANCH   4   7
HETATM    7  C   LIG     1      15.318  33.521  16.942  1.00  0.00     0.176 C 
HETATM    8  O   LIG     1      15.773  34.551  16.373  1.00  0.00    -0.646 OA
BRANCH   7   9
HETATM    9  O   LIG     1      15.183  33.512  18.328  1.00  0.00    -0.773 OA
HETATM   10  H   LIG     1      14.638  32.795  18.793  1.00  0.00     0.167 HD
ENDBRANCH   7   9
ENDBRANCH   4   7
BRANCH   1  11
HETATM   11  O   LIG     1      13.802  28.959  13.904  1.00  0.00    -0.361 OA
HETATM   12  H   LIG     1      14.449  28.201  13.720  1.00  0.00     0.217 HD
ENDBRANCH   1  11
TORSDOF 3
ENDMDL
MODEL 5
REMARK VINA RESULT:      -5.7      8.784     10.109
REMARK  3 active torsions:
REMARK  status: ('A' for Active; 'I' for Inactive)
REMARK    1  A    between atoms: O_1  and  C_2 
REMARK    2  A    between atoms: C_5  and  C_6 
REMARK    3  A    between atoms: C_6  and  O_7 
ROOT
HETATM    1  C   LIG     1      13.605  29.652  14.469  1.00  0.00     0.065 A 
HETATM    2  C   LIG     1      14.752  29.839  13.693  1.00  0.00     0.037 A 
HETATM    3  C   LIG     1      15.676  30.833  14.030  1.00  0.00     0.021 A 
HETATM    4  C   LIG     1      15.461  31.655  15.151  1.00  0.00     0.037 A 
HETATM    5  C   LIG     1      14.304  31.461  15.927  1.00  0.00     0.021 A 
HETATM    6  C   LIG     1      13.382  30.465  15.587  1.00  0.00     0.037 A 
ENDROOT
BRANCH   4   7
HETATM    7  C   LIG     1      16.439  32.707  15.505  1.00  0.00     0.176 C 
HETATM    8  O   LIG     1      16.049  33.810  15.975  1.00  0.00    -0.646 OA
BRANCH   7   9
HETATM    9  O   LIG     1      17.802  32.488  15.323  1.00  0.00    -0.773 OA
HETATM   10  H   LIG     1      18.391  33.196  14.899  1.00  0.00     0.167 HD
ENDBRANCH   7   9
ENDBRANCH   4   7
BRANCH   1  11
HETATM   11  O   LIG     1      12.694  28.657  14.121  1.00  0.00    -0.361 OA
HETATM   12  H   LIG     1      11.789  28.882  13.723  1.00  0.00     0.217 HD
ENDBRANCH   1  11
TORSDOF 3
ENDMDL
MODEL 6
REMARK VINA RESULT:      -5.7      7.671      9.210
REMARK  3 active torsions:
REMARK  status: ('A' for Active; 'I' for Inactive)
REMARK    1  A    between atoms: O_1  and  C_2 
REMARK    2  A    between atoms: C_5  and  C_6 
REMARK    3  A    between atoms: C_6  and  O_7 
ROOT
HETATM    1  C   LIG     1      13.445  30.956  16.302  1.00  0.00     0.065 A 
HETATM    2  C   LIG     1      13.748  32.099  17.048  1.00  0.00     0.037 A 
HETATM    3  C   LIG     1      14.857  32.883  16.717  1.00  0.00     0.021 A 
HETATM    4  C   LIG     1      15.681  32.531  15.633  1.00  0.00     0.037 A 
HETATM    5  C   LIG     1      15.371  31.379  14.888  1.00  0.00     0.021 A 
HETATM    6  C   LIG     1      14.260  30.597  15.220  1.00  0.00     0.037 A 
ENDROOT
BRANCH   4   7
HETATM    7  C   LIG     1      16.855  33.362  15.286  1.00  0.00     0.176 C 
HETATM    8  O   LIG     1      16.862  34.596  15.545  1.00  0.00    -0.646 OA
BRANCH   7   9
HETATM    9  O   LIG     1      17.964  32.788  14.671  1.00  0.00    -0.773 OA
HETATM   10  H   LIG     1      18.242  31.837  14.883  1.00  0.00     0.167 HD
ENDBRANCH   7   9
ENDBRANCH   4   7
BRANCH   1  11
HETATM   11  O   LIG     1      12.337  30.185  16.643  1.00  0.00    -0.361 OA
HETATM   12  H   LIG     1      12.395  29.175  16.714  1.00  0.00     0.217 HD
ENDBRANCH   1  11
TORSDOF 3
ENDMDL
MODEL 7
REMARK VINA RESULT:      -5.7      8.788      9.882
REMARK  3 active torsions:
REMARK  status: ('A' for Active; 'I' for Inactive)
REMARK    1  A    between atoms: O_1  and  C_2 
REMARK    2  A    between atoms: C_5  and  C_6 
REMARK    3  A    between atoms: C_6  and  O_7 
ROOT
HETATM    1  C   LIG     1      14.475  32.676  16.830  1.00  0.00     0.065 A 
HETATM    2  C   LIG     1      15.404  32.386  15.826  1.00  0.00     0.037 A 
HETATM    3  C   LIG     1      15.218  31.279  14.993  1.00  0.00     0.021 A 
HETATM    4  C   LIG     1      14.098  30.445  15.155  1.00  0.00     0.037 A 
HETATM    5  C   LIG     1      13.168  30.742  16.168  1.00  0.00     0.021 A 
HETATM    6  C   LIG     1      13.356  31.851  17.000  1.00  0.00     0.037 A 
ENDROOT
BRANCH   4   7
HETATM    7  C   LIG     1      13.904  29.273  14.273  1.00  0.00     0.176 C 
HETATM    8  O   LIG     1      14.899  28.637  13.829  1.00  0.00    -0.646 OA
BRANCH   7   9
HETATM    9  O   LIG     1      12.621  28.860  13.925  1.00  0.00    -0.773 OA
HETATM   10  H   LIG     1      12.175  28.088  14.407  1.00  0.00     0.167 HD
ENDBRANCH   7   9
ENDBRANCH   4   7
BRANCH   1  11
HETATM   11  O   LIG     1      14.673  33.783  17.652  1.00  0.00    -0.361 OA
HETATM   12  H   LIG     1      14.072  34.597  17.598  1.00  0.00     0.217 HD
ENDBRANCH   1  11
TORSDOF 3
ENDMDL
MODEL 8
REMARK VINA RESULT:      -5.7      8.078      8.921
REMARK  3 active torsions:
REMARK  status: ('A' for Active; 'I' for Inactive)
REMARK    1  A    between atoms: O_1  and  C_2 
REMARK    2  A    between atoms: C_5  and  C_6 
REMARK    3  A    between atoms: C_6  and  O_7 
ROOT
HETATM    1  C   LIG     1      16.338  32.037  13.809  1.00  0.00     0.065 A 
HETATM    2  C   LIG     1      16.371  32.839  14.954  1.00  0.00     0.037 A 
HETATM    3  C   LIG     1      15.497  32.590  16.015  1.00  0.00     0.021 A 
HETATM    4  C   LIG     1      14.573  31.531  15.943  1.00  0.00     0.037 A 
HETATM    5  C   LIG     1      14.544  30.729  14.789  1.00  0.00     0.021 A 
HETATM    6  C   LIG     1      15.422  30.980  13.728  1.00  0.00     0.037 A 
ENDROOT
BRANCH   4   7
HETATM    7  C   LIG     1      13.647  31.270  17.067  1.00  0.00     0.176 C 
HETATM    8  O   LIG     1      12.659  30.501  16.915  1.00  0.00    -0.646 OA
BRANCH   7   9
HETATM    9  O   LIG     1      13.858  31.871  18.305  1.00  0.00    -0.773 OA
HETATM   10  H   LIG     1      14.790  32.136  18.602  1.00  0.00     0.167 HD
ENDBRANCH   7   9
ENDBRANCH   4   7
BRANCH   1  11
HETATM   11  O   LIG     1      17.217  32.298  12.761  1.00  0.00    -0.361 OA
HETATM   12  H   LIG     1      17.633  31.548  12.220  1.00  0.00     0.217 HD
ENDBRANCH   1  11
TORSDOF 3
ENDMDL
MODEL 9
REMARK VINA RESULT:      -5.7      2.627      4.180
REMARK  3 active torsions:
REMARK  status: ('A' for Active; 'I' for Inactive)
REMARK    1  A    between atoms: O_1  and  C_2 
REMARK    2  A    between atoms: C_5  and  C_6 
REMARK    3  A    between atoms: C_6  and  O_7 
ROOT
HETATM    1  C   LIG     1      17.295  37.676  24.585  1.00  0.00     0.065 A 
HETATM    2  C   LIG     1      17.281  38.475  23.439  1.00  0.00     0.037 A 
HETATM    3  C   LIG     1      17.164  37.893  22.174  1.00  0.00     0.021 A 
HETATM    4  C   LIG     1      17.059  36.496  22.040  1.00  0.00     0.037 A 
HETATM    5  C   LIG     1      17.074  35.697  23.197  1.00  0.00     0.021 A 
HETATM    6  C   LIG     1      17.191  36.284  24.462  1.00  0.00     0.037 A 
ENDROOT
BRANCH   4   7
HETATM    7  C   LIG     1      16.936  35.881  20.700  1.00  0.00     0.176 C 
HETATM    8  O   LIG     1      17.771  36.153  19.794  1.00  0.00    -0.646 OA
BRANCH   7   9
HETATM    9  O   LIG     1      15.898  34.995  20.427  1.00  0.00    -0.773 OA
HETATM   10  H   LIG     1      15.102  34.919  21.049  1.00  0.00     0.167 HD
ENDBRANCH   7   9
ENDBRANCH   4   7
BRANCH   1  11
HETATM   11  O   LIG     1      17.412  38.271  25.839  1.00  0.00    -0.361 OA
HETATM   12  H   LIG     1      16.879  37.939  26.635  1.00  0.00     0.217 HD
ENDBRANCH   1  11
TORSDOF 3
ENDMDL
MODEL 10
REMARK VINA RESULT:      -5.5      3.331      4.434
REMARK  3 active torsions:
REMARK  status: ('A' for Active; 'I' for Inactive)
REMARK    1  A    between atoms: O_1  and  C_2 
REMARK    2  A    between atoms: C_5  and  C_6 
REMARK    3  A    between atoms: C_6  and  O_7 
ROOT
HETATM    1  C   LIG     1      17.109  38.082  23.255  1.00  0.00     0.065 A 
HETATM    2  C   LIG     1      16.894  36.756  22.867  1.00  0.00     0.037 A 
HETATM    3  C   LIG     1      17.055  35.717  23.788  1.00  0.00     0.021 A 
HETATM    4  C   LIG     1      17.437  35.993  25.114  1.00  0.00     0.037 A 
HETATM    5  C   LIG     1      17.652  37.329  25.497  1.00  0.00     0.021 A 
HETATM    6  C   LIG     1      17.489  38.367  24.573  1.00  0.00     0.037 A 
ENDROOT
BRANCH   4   7
HETATM    7  C   LIG     1      17.609  34.891  26.086  1.00  0.00     0.176 C 
HETATM    8  O   LIG     1      16.607  34.253  26.512  1.00  0.00    -0.646 OA
BRANCH   7   9
HETATM    9  O   LIG     1      18.879  34.548  26.540  1.00  0.00    -0.773 OA
HETATM   10  H   LIG     1      19.197  34.828  27.461  1.00  0.00     0.167 HD
ENDBRANCH   7   9
ENDBRANCH   4   7
BRANCH   1  11
HETATM   11  O   LIG     1      16.943  39.106  22.326  1.00  0.00    -0.361 OA
HETATM   12  H   LIG     1      16.339  38.997  21.519  1.00  0.00     0.217 HD
ENDBRANCH   1  11
TORSDOF 3
ENDMDL
MODEL 11
REMARK VINA RESULT:      -5.5      7.884      9.089
REMARK  3 active torsions:
REMARK  status: ('A' for Active; 'I' for Inactive)
REMARK    1  A    between atoms: O_1  and  C_2 
REMARK    2  A    between atoms: C_5  and  C_6 
REMARK    3  A    between atoms: C_6  and  O_7 
ROOT
HETATM    1  C   LIG     1      14.922  30.159  14.370  1.00  0.00     0.065 A 
HETATM    2  C   LIG     1      15.943  31.112  14.318  1.00  0.00     0.037 A 
HETATM    3  C   LIG     1      15.978  32.160  15.242  1.00  0.00     0.021 A 
HETATM    4  C   LIG     1      14.986  32.269  16.234  1.00  0.00     0.037 A 
HETATM    5  C   LIG     1      13.960  31.307  16.280  1.00  0.00     0.021 A 
HETATM    6  C   LIG     1      13.929  30.259  15.353  1.00  0.00     0.037 A 
ENDROOT
BRANCH   4   7
HETATM    7  C   LIG     1      15.023  33.380  17.210  1.00  0.00     0.176 C 
HETATM    8  O   LIG     1      15.475  33.193  18.372  1.00  0.00    -0.646 OA
BRANCH   7   9
HETATM    9  O   LIG     1      14.560  34.643  16.853  1.00  0.00    -0.773 OA
HETATM   10  H   LIG     1      14.893  35.473  17.330  1.00  0.00     0.167 HD
ENDBRANCH   7   9
ENDBRANCH   4   7
BRANCH   1  11
HETATM   11  O   LIG     1      14.902  29.121  13.443  1.00  0.00    -0.361 OA
HETATM   12  H   LIG     1      14.053  28.603  13.246  1.00  0.00     0.217 HD
ENDBRANCH   1  11
TORSDOF 3
ENDMDL
MODEL 12
REMARK VINA RESULT:      -5.2      3.380      4.578
REMARK  3 active torsions:
REMARK  status: ('A' for Active; 'I' for Inactive)
REMARK    1  A    between atoms: O_1  and  C_2 
REMARK    2  A    between atoms: C_5  and  C_6 
REMARK    3  A    between atoms: C_6  and  O_7 
ROOT
HETATM    1  C   LIG     1      15.478  34.749  21.032  1.00  0.00     0.065 A 
HETATM    2  C   LIG     1      14.704  35.881  21.303  1.00  0.00     0.037 A 
HETATM    3  C   LIG     1      15.196  36.888  22.139  1.00  0.00     0.021 A 
HETATM    4  C   LIG     1      16.474  36.773  22.716  1.00  0.00     0.037 A 
HETATM    5  C   LIG     1      17.247  35.631  22.439  1.00  0.00     0.021 A 
HETATM    6  C   LIG     1      16.752  34.626  21.602  1.00  0.00     0.037 A 
ENDROOT
BRANCH   4   7
HETATM    7  C   LIG     1      16.992  37.839  23.602  1.00  0.00     0.176 C 
HETATM    8  O   LIG     1      16.409  38.107  24.687  1.00  0.00    -0.646 OA
BRANCH   7   9
HETATM    9  O   LIG     1      18.131  38.557  23.244  1.00  0.00    -0.773 OA
HETATM   10  H   LIG     1      19.038  38.316  23.625  1.00  0.00     0.167 HD
ENDBRANCH   7   9
ENDBRANCH   4   7
BRANCH   1  11
HETATM   11  O   LIG     1      14.974  33.755  20.197  1.00  0.00    -0.361 OA
HETATM   12  H   LIG     1      14.392  33.979  19.398  1.00  0.00     0.217 HD
ENDBRANCH   1  11
TORSDOF 3
ENDMDL
MODEL 13
REMARK VINA RESULT:      -4.6      8.702      9.637
REMARK  3 active torsions:
REMARK  status: ('A' for Active; 'I' for Inactive)
REMARK    1  A    between atoms: O_1  and  C_2 
REMARK    2  A    between atoms: C_5  and  C_6 
REMARK    3  A    between atoms: C_6  and  O_7 
ROOT
HETATM    1  C   LIG     1      20.748  34.897  10.838  1.00  0.00     0.065 A 
HETATM    2  C   LIG     1      21.107  34.266  12.032  1.00  0.00     0.037 A 
HETATM    3  C   LIG     1      20.124  33.747  12.879  1.00  0.00     0.021 A 
HETATM    4  C   LIG     1      18.763  33.853  12.539  1.00  0.00     0.037 A 
HETATM    5  C   LIG     1      18.409  34.489  11.336  1.00  0.00     0.021 A 
HETATM    6  C   LIG     1      19.396  35.008  10.490  1.00  0.00     0.037 A 
ENDROOT
BRANCH   4   7
HETATM    7  C   LIG     1      17.723  33.304  13.437  1.00  0.00     0.176 C 
HETATM    8  O   LIG     1      18.021  32.928  14.604  1.00  0.00    -0.646 OA
BRANCH   7   9
HETATM    9  O   LIG     1      16.405  33.198  13.003  1.00  0.00    -0.773 OA
HETATM   10  H   LIG     1      16.011  33.879  12.365  1.00  0.00     0.167 HD
ENDBRANCH   7   9
ENDBRANCH   4   7
BRANCH   1  11
HETATM   11  O   LIG     1      21.740  35.409  10.005  1.00  0.00    -0.361 OA
HETATM   12  H   LIG     1      22.634  35.715  10.371  1.00  0.00     0.217 HD
ENDBRANCH   1  11
TORSDOF 3
ENDMDL
MODEL 14
REMARK VINA RESULT:      -4.2      8.617      9.736
REMARK  3 active torsions:
REMARK  status: ('A' for Active; 'I' for Inactive)
REMARK    1  A    between atoms: O_1  and  C_2 
REMARK    2  A    between atoms: C_5  and  C_6 
REMARK    3  A    between atoms: C_6  and  O_7 
ROOT
HETATM    1  C   LIG     1      20.838  32.877  10.974  1.00  0.00     0.065 A 
HETATM    2  C   LIG     1      21.259  33.678  12.039  1.00  0.00     0.037 A 
HETATM    3  C   LIG     1      20.349  34.082  13.020  1.00  0.00     0.021 A 
HETATM    4  C   LIG     1      19.000  33.690  12.946  1.00  0.00     0.037 A 
HETATM    5  C   LIG     1      18.583  32.885  11.871  1.00  0.00     0.021 A 
HETATM    6  C   LIG     1      19.497  32.481  10.891  1.00  0.00     0.037 A 
ENDROOT
BRANCH   4   7
HETATM    7  C   LIG     1      18.038  34.121  13.984  1.00  0.00     0.176 C 
HETATM    8  O   LIG     1      17.398  35.200  13.853  1.00  0.00    -0.646 OA
BRANCH   7   9
HETATM    9  O   LIG     1      17.829  33.337  15.116  1.00  0.00    -0.773 OA
HETATM   10  H   LIG     1      18.493  32.620  15.382  1.00  0.00     0.167 HD
ENDBRANCH   7   9
ENDBRANCH   4   7
BRANCH   1  11
HETATM   11  O   LIG     1      21.757  32.481  10.005  1.00  0.00    -0.361 OA
HETATM   12  H   LIG     1      21.536  32.523   9.017  1.00  0.00     0.217 HD
ENDBRANCH   1  11
TORSDOF 3
ENDMDL
MODEL 15
REMARK VINA RESULT:      -4.2      9.594     10.794
REMARK  3 active torsions:
REMARK  status: ('A' for Active; 'I' for Inactive)
REMARK    1  A    between atoms: O_1  and  C_2 
REMARK    2  A    between atoms: C_5  and  C_6 
REMARK    3  A    between atoms: C_6  and  O_7 
ROOT
HETATM    1  C   LIG     1      20.246  34.160  11.278  1.00  0.00     0.065 A 
HETATM    2  C   LIG     1      20.750  33.968  12.567  1.00  0.00     0.037 A 
HETATM    3  C   LIG     1      21.895  34.653  12.985  1.00  0.00     0.021 A 
HETATM    4  C   LIG     1      22.552  35.542  12.115  1.00  0.00     0.037 A 
HETATM    5  C   LIG     1      22.039  35.730  10.819  1.00  0.00     0.021 A 
HETATM    6  C   LIG     1      20.892  35.043  10.403  1.00  0.00     0.037 A 
ENDROOT
BRANCH   4   7
HETATM    7  C   LIG     1      23.764  36.265  12.559  1.00  0.00     0.176 C 
HETATM    8  O   LIG     1      24.375  37.033  11.768  1.00  0.00    -0.646 OA
BRANCH   7   9
HETATM    9  O   LIG     1      24.240  36.104  13.858  1.00  0.00    -0.773 OA
HETATM   10  H   LIG     1      24.907  35.375  14.080  1.00  0.00     0.167 HD
ENDBRANCH   7   9
ENDBRANCH   4   7
BRANCH   1  11
HETATM   11  O   LIG     1      19.104  33.471  10.876  1.00  0.00    -0.361 OA
HETATM   12  H   LIG     1      19.135  32.485  10.643  1.00  0.00     0.217 HD
ENDBRANCH   1  11
TORSDOF 3
ENDMDL
MODEL 16
REMARK VINA RESULT:      -4.2      7.764      9.465
REMARK  3 active torsions:
REMARK  status: ('A' for Active; 'I' for Inactive)
REMARK    1  A    between atoms: O_1  and  C_2 
REMARK    2  A    between atoms: C_5  and  C_6 
REMARK    3  A    between atoms: C_6  and  O_7 
ROOT
HETATM    1  C   LIG     1      15.712  32.517  15.680  1.00  0.00     0.065 A 
HETATM    2  C   LIG     1      16.608  33.585  15.776  1.00  0.00     0.037 A 
HETATM    3  C   LIG     1      17.407  33.936  14.684  1.00  0.00     0.021 A 
HETATM    4  C   LIG     1      17.318  33.218  13.477  1.00  0.00     0.037 A 
HETATM    5  C   LIG     1      16.414  32.144  13.387  1.00  0.00     0.021 A 
HETATM    6  C   LIG     1      15.616  31.796  14.483  1.00  0.00     0.037 A 
ENDROOT
BRANCH   4   7
HETATM    7  C   LIG     1      18.165  33.590  12.322  1.00  0.00     0.176 C 
HETATM    8  O   LIG     1      19.014  32.778  11.865  1.00  0.00    -0.646 OA
BRANCH   7   9
HETATM    9  O   LIG     1      18.030  34.842  11.728  1.00  0.00    -0.773 OA
HETATM   10  H   LIG     1      18.048  34.944  10.720  1.00  0.00     0.167 HD
ENDBRANCH   7   9
ENDBRANCH   4   7
BRANCH   1  11
HETATM   11  O   LIG     1      14.923  32.180  16.777  1.00  0.00    -0.361 OA
HETATM   12  H   LIG     1      14.940  31.248  17.176  1.00  0.00     0.217 HD
ENDBRANCH   1  11
TORSDOF 3
ENDMDL
MODEL 17
REMARK VINA RESULT:      -4.0      9.744     10.627
REMARK  3 active torsions:
REMARK  status: ('A' for Active; 'I' for Inactive)
REMARK    1  A    between atoms: O_1  and  C_2 
REMARK    2  A    between atoms: C_5  and  C_6 
REMARK    3  A    between atoms: C_6  and  O_7 
ROOT
HETATM    1  C   LIG     1      22.329  35.823  11.233  1.00  0.00     0.065 A 
HETATM    2  C   LIG     1      22.125  35.116  12.421  1.00  0.00     0.037 A 
HETATM    3  C   LIG     1      21.147  34.119  12.489  1.00  0.00     0.021 A 
HETATM    4  C   LIG     1      20.358  33.817  11.364  1.00  0.00     0.037 A 
HETATM    5  C   LIG     1      20.569  34.533  10.172  1.00  0.00     0.021 A 
HETATM    6  C   LIG     1      21.549  35.530  10.107  1.00  0.00     0.037 A 
ENDROOT
BRANCH   4   7
HETATM    7  C   LIG     1      19.323  32.763  11.439  1.00  0.00     0.176 C 
HETATM    8  O   LIG     1      19.454  31.692  10.785  1.00  0.00    -0.646 OA
BRANCH   7   9
HETATM    9  O   LIG     1      18.194  32.943  12.233  1.00  0.00    -0.773 OA
HETATM   10  H   LIG     1      17.476  33.609  11.974  1.00  0.00     0.167 HD
ENDBRANCH   7   9
ENDBRANCH   4   7
BRANCH   1  11
HETATM   11  O   LIG     1      23.308  36.813  11.181  1.00  0.00    -0.361 OA
HETATM   12  H   LIG     1      23.276  37.554  10.490  1.00  0.00     0.217 HD
ENDBRANCH   1  11
TORSDOF 3
ENDMDL
MODEL 18
REMARK VINA RESULT:      -3.6     18.968     20.351
REMARK  3 active torsions:
REMARK  status: ('A' for Active; 'I' for Inactive)
REMARK    1  A    between atoms: O_1  and  C_2 
REMARK    2  A    between atoms: C_5  and  C_6 
REMARK    3  A    between atoms: C_6  and  O_7 
ROOT
HETATM    1  C   LIG     1      21.711  23.631  36.420  1.00  0.00     0.065 A 
HETATM    2  C   LIG     1      22.438  23.568  35.228  1.00  0.00     0.037 A 
HETATM    3  C   LIG     1      21.794  23.266  34.024  1.00  0.00     0.021 A 
HETATM    4  C   LIG     1      20.409  23.021  33.999  1.00  0.00     0.037 A 
HETATM    5  C   LIG     1      19.683  23.086  35.203  1.00  0.00     0.021 A 
HETATM    6  C   LIG     1      20.331  23.389  36.405  1.00  0.00     0.037 A 
ENDROOT
BRANCH   4   7
HETATM    7  C   LIG     1      19.729  22.700  32.725  1.00  0.00     0.176 C 
HETATM    8  O   LIG     1      19.012  23.563  32.149  1.00  0.00    -0.646 OA
BRANCH   7   9
HETATM    9  O   LIG     1      19.878  21.442  32.148  1.00  0.00    -0.773 OA
HETATM   10  H   LIG     1      20.441  21.314  31.315  1.00  0.00     0.167 HD
ENDBRANCH   7   9
ENDBRANCH   4   7
BRANCH   1  11
HETATM   11  O   LIG     1      22.366  23.934  37.610  1.00  0.00    -0.361 OA
HETATM   12  H   LIG     1      23.352  24.169  37.627  1.00  0.00     0.217 HD
ENDBRANCH   1  11
TORSDOF 3
ENDMDL
MODEL 19
REMARK VINA RESULT:      -3.5     19.602     21.333
REMARK  3 active torsions:
REMARK  status: ('A' for Active; 'I' for Inactive)
REMARK    1  A    between atoms: O_1  and  C_2 
REMARK    2  A    between atoms: C_5  and  C_6 
REMARK    3  A    between atoms: C_6  and  O_7 
ROOT
HETATM    1  C   LIG     1      20.133  22.989  33.776  1.00  0.00     0.065 A 
HETATM    2  C   LIG     1      21.445  23.468  33.824  1.00  0.00     0.037 A 
HETATM    3  C   LIG     1      22.199  23.344  34.994  1.00  0.00     0.021 A 
HETATM    4  C   LIG     1      21.646  22.737  36.136  1.00  0.00     0.037 A 
HETATM    5  C   LIG     1      20.325  22.257  36.082  1.00  0.00     0.021 A 
HETATM    6  C   LIG     1      19.573  22.382  34.908  1.00  0.00     0.037 A 
ENDROOT
BRANCH   4   7
HETATM    7  C   LIG     1      22.446  22.608  37.375  1.00  0.00     0.176 C 
HETATM    8  O   LIG     1      22.803  21.471  37.789  1.00  0.00    -0.646 OA
BRANCH   7   9
HETATM    9  O   LIG     1      22.813  23.742  38.094  1.00  0.00    -0.773 OA
HETATM   10  H   LIG     1      23.781  23.910  38.342  1.00  0.00     0.167 HD
ENDBRANCH   7   9
ENDBRANCH   4   7
BRANCH   1  11
HETATM   11  O   LIG     1      19.394  23.119  32.602  1.00  0.00    -0.361 OA
HETATM   12  H   LIG     1      18.518  23.628  32.581  1.00  0.00     0.217 HD
ENDBRANCH   1  11
TORSDOF 3
ENDMDL
MODEL 20
REMARK VINA RESULT:      -3.5     18.057     19.097
REMARK  3 active torsions:
REMARK  status: ('A' for Active; 'I' for Inactive)
REMARK    1  A    between atoms: O_1  and  C_2 
REMARK    2  A    between atoms: C_5  and  C_6 
REMARK    3  A    between atoms: C_6  and  O_7 
ROOT
HETATM    1  C   LIG     1      26.309  30.712  37.098  1.00  0.00     0.065 A 
HETATM    2  C   LIG     1      25.959  31.068  35.793  1.00  0.00     0.037 A 
HETATM    3  C   LIG     1      26.117  30.154  34.747  1.00  0.00     0.021 A 
HETATM    4  C   LIG     1      26.630  28.868  34.996  1.00  0.00     0.037 A 
HETATM    5  C   LIG     1      26.981  28.517  36.312  1.00  0.00     0.021 A 
HETATM    6  C   LIG     1      26.821  29.434  37.356  1.00  0.00     0.037 A 
ENDROOT
BRANCH   4   7
HETATM    7  C   LIG     1      26.798  27.903  33.887  1.00  0.00     0.176 C 
HETATM    8  O   LIG     1      27.868  27.245  33.769  1.00  0.00    -0.646 OA
BRANCH   7   9
HETATM    9  O   LIG     1      25.774  27.710  32.963  1.00  0.00    -0.773 OA
HETATM   10  H   LIG     1      25.805  28.152  32.053  1.00  0.00     0.167 HD
ENDBRANCH   7   9
ENDBRANCH   4   7
BRANCH   1  11
HETATM   11  O   LIG     1      26.145  31.634  38.129  1.00  0.00    -0.361 OA
HETATM   12  H   LIG     1      26.229  31.361  39.102  1.00  0.00     0.217 HD
ENDBRANCH   1  11
TORSDOF 3
ENDMDL
