MODEL 1
REMARK VINA RESULT:      -6.7      0.000      0.000
REMARK  2 active torsions:
REMARK  status: ('A' for Active; 'I' for Inactive)
REMARK    1  A    between atoms: C_2  and  C_3 
REMARK    2  A    between atoms: C_6  and  N_7 
ROOT
HETATM    1  C   LIG     1      17.659  37.397  21.298  1.00  0.00     0.009 A 
HETATM    2  C   LIG     1      18.309  36.716  20.251  1.00  0.00     0.017 A 
HETATM    3  C   LIG     1      19.243  37.377  19.447  1.00  0.00     0.030 A 
HETATM    4  C   LIG     1      19.548  38.723  19.679  1.00  0.00     0.025 A 
HETATM    5  C   LIG     1      18.915  39.405  20.727  1.00  0.00     0.030 A 
HETATM    6  C   LIG     1      17.981  38.746  21.533  1.00  0.00     0.017 A 
ENDROOT
BRANCH   1   7
HETATM    7  C   LIG     1      16.672  36.712  22.169  1.00  0.00     0.155 C 
HETATM    8  C   LIG     1      16.815  35.272  22.566  1.00  0.00     0.096 C 
HETATM    9  O   LIG     1      15.668  37.348  22.587  1.00  0.00    -0.293 OA
ENDBRANCH   1   7
BRANCH   4  10
HETATM   10  N   LIG     1      20.504  39.398  18.856  1.00  0.00    -0.399 N 
HETATM   11  H   LIG     1      20.374  40.402  18.600  1.00  0.00     0.156 HD
HETATM   12  H   LIG     1      21.346  38.897  18.496  1.00  0.00     0.156 HD
ENDBRANCH   4  10
TORSDOF 2
ENDMDL
MODEL 2
REMARK VINA RESULT:      -6.4      2.919      4.014
REMARK  2 active torsions:
REMARK  status: ('A' for Active; 'I' for Inactive)
REMARK    1  A    between atoms: C_2  and  C_3 
REMARK    2  A    between atoms: C_6  and  N_7 
ROOT
HETATM    1  C   LIG     1      17.334  36.940  24.071  1.00  0.00     0.009 A 
HETATM    2  C   LIG     1      17.369  37.831  22.981  1.00  0.00     0.017 A 
HETATM    3  C   LIG     1      17.190  37.362  21.676  1.00  0.00     0.030 A 
HETATM    4  C   LIG     1      16.965  36.000  21.439  1.00  0.00     0.025 A 
HETATM    5  C   LIG     1      16.916  35.109  22.518  1.00  0.00     0.030 A 
HETATM    6  C   LIG     1      17.094  35.576  23.824  1.00  0.00     0.017 A 
ENDROOT
BRANCH   1   7
HETATM    7  C   LIG     1      17.512  37.418  25.464  1.00  0.00     0.155 C 
HETATM    8  C   LIG     1      18.320  36.662  26.476  1.00  0.00     0.096 C 
HETATM    9  O   LIG     1      16.958  38.490  25.827  1.00  0.00    -0.293 OA
ENDBRANCH   1   7
BRANCH   4  10
HETATM   10  N   LIG     1      16.782  35.523  20.103  1.00  0.00    -0.399 N 
HETATM   11  H   LIG     1      16.908  36.160  19.285  1.00  0.00     0.156 HD
HETATM   12  H   LIG     1      16.518  34.528  19.923  1.00  0.00     0.156 HD
ENDBRANCH   4  10
TORSDOF 2
ENDMDL
MODEL 3
REMARK VINA RESULT:      -6.1      3.342      4.085
REMARK  2 active torsions:
REMARK  status: ('A' for Active; 'I' for Inactive)
REMARK    1  A    between atoms: C_2  and  C_3 
REMARK    2  A    between atoms: C_6  and  N_7 
ROOT
HETATM    1  C   LIG     1      16.965  36.354  22.114  1.00  0.00     0.009 A 
HETATM    2  C   LIG     1      17.051  35.690  23.352  1.00  0.00     0.017 A 
HETATM    3  C   LIG     1      17.174  36.418  24.540  1.00  0.00     0.030 A 
HETATM    4  C   LIG     1      17.204  37.817  24.511  1.00  0.00     0.025 A 
HETATM    5  C   LIG     1      17.105  38.486  23.284  1.00  0.00     0.030 A 
HETATM    6  C   LIG     1      16.982  37.760  22.095  1.00  0.00     0.017 A 
ENDROOT
BRANCH   1   7
HETATM    7  C   LIG     1      16.824  35.601  20.843  1.00  0.00     0.155 C 
HETATM    8  C   LIG     1      15.955  34.384  20.722  1.00  0.00     0.096 C 
HETATM    9  O   LIG     1      17.462  35.980  19.824  1.00  0.00    -0.293 OA
ENDBRANCH   1   7
BRANCH   4  10
HETATM   10  N   LIG     1      17.329  38.560  25.727  1.00  0.00    -0.399 N 
HETATM   11  H   LIG     1      16.826  39.466  25.855  1.00  0.00     0.156 HD
HETATM   12  H   LIG     1      17.928  38.210  26.508  1.00  0.00     0.156 HD
ENDBRANCH   4  10
TORSDOF 2
ENDMDL
MODEL 4
REMARK VINA RESULT:      -6.1      3.703      5.227
REMARK  2 active torsions:
REMARK  status: ('A' for Active; 'I' for Inactive)
REMARK    1  A    between atoms: C_2  and  C_3 
REMARK    2  A    between atoms: C_6  and  N_7 
ROOT
HETATM    1  C   LIG     1      17.213  37.631  23.646  1.00  0.00     0.009 A 
HETATM    2  C   LIG     1      17.806  37.967  24.879  1.00  0.00     0.017 A 
HETATM    3  C   LIG     1      18.087  36.975  25.824  1.00  0.00     0.030 A 
HETATM    4  C   LIG     1      17.790  35.634  25.551  1.00  0.00     0.025 A 
HETATM    5  C   LIG     1      17.213  35.290  24.322  1.00  0.00     0.030 A 
HETATM    6  C   LIG     1      16.931  36.279  23.375  1.00  0.00     0.017 A 
ENDROOT
BRANCH   1   7
HETATM    7  C   LIG     1      16.915  38.666  22.626  1.00  0.00     0.155 C 
HETATM    8  C   LIG     1      17.895  39.043  21.555  1.00  0.00     0.096 C 
HETATM    9  O   LIG     1      15.808  39.266  22.657  1.00  0.00    -0.293 OA
ENDBRANCH   1   7
BRANCH   4  10
HETATM   10  N   LIG     1      18.079  34.621  26.519  1.00  0.00    -0.399 N 
HETATM   11  H   LIG     1      18.811  34.772  27.248  1.00  0.00     0.156 HD
HETATM   12  H   LIG     1      17.564  33.713  26.511  1.00  0.00     0.156 HD
ENDBRANCH   4  10
TORSDOF 2
ENDMDL
MODEL 5
REMARK VINA RESULT:      -6.0      3.053      4.261
REMARK  2 active torsions:
REMARK  status: ('A' for Active; 'I' for Inactive)
REMARK    1  A    between atoms: C_2  and  C_3 
REMARK    2  A    between atoms: C_6  and  N_7 
ROOT
HETATM    1  C   LIG     1      18.735  38.293  19.939  1.00  0.00     0.009 A 
HETATM    2  C   LIG     1      18.427  36.924  19.822  1.00  0.00     0.017 A 
HETATM    3  C   LIG     1      17.706  36.271  20.827  1.00  0.00     0.030 A 
HETATM    4  C   LIG     1      17.275  36.975  21.958  1.00  0.00     0.025 A 
HETATM    5  C   LIG     1      17.565  38.340  22.075  1.00  0.00     0.030 A 
HETATM    6  C   LIG     1      18.285  38.995  21.072  1.00  0.00     0.017 A 
ENDROOT
BRANCH   1   7
HETATM    7  C   LIG     1      19.490  39.007  18.879  1.00  0.00     0.155 C 
HETATM    8  C   LIG     1      18.912  39.272  17.521  1.00  0.00     0.096 C 
HETATM    9  O   LIG     1      20.665  39.399  19.113  1.00  0.00    -0.293 OA
ENDBRANCH   1   7
BRANCH   4  10
HETATM   10  N   LIG     1      16.537  36.305  22.984  1.00  0.00    -0.399 N 
HETATM   11  H   LIG     1      15.993  36.848  23.692  1.00  0.00     0.156 HD
HETATM   12  H   LIG     1      16.531  35.263  23.045  1.00  0.00     0.156 HD
ENDBRANCH   4  10
TORSDOF 2
ENDMDL
MODEL 6
REMARK VINA RESULT:      -5.9      1.041      1.878
REMARK  2 active torsions:
REMARK  status: ('A' for Active; 'I' for Inactive)
REMARK    1  A    between atoms: C_2  and  C_3 
REMARK    2  A    between atoms: C_6  and  N_7 
ROOT
HETATM    1  C   LIG     1      17.415  36.617  21.458  1.00  0.00     0.009 A 
HETATM    2  C   LIG     1      17.534  37.935  21.939  1.00  0.00     0.017 A 
HETATM    3  C   LIG     1      18.311  38.873  21.252  1.00  0.00     0.030 A 
HETATM    4  C   LIG     1      18.973  38.514  20.072  1.00  0.00     0.025 A 
HETATM    5  C   LIG     1      18.849  37.209  19.580  1.00  0.00     0.030 A 
HETATM    6  C   LIG     1      18.073  36.269  20.264  1.00  0.00     0.017 A 
ENDROOT
BRANCH   1   7
HETATM    7  C   LIG     1      16.588  35.609  22.166  1.00  0.00     0.155 C 
HETATM    8  C   LIG     1      16.936  35.101  23.533  1.00  0.00     0.096 C 
HETATM    9  O   LIG     1      15.560  35.146  21.603  1.00  0.00    -0.293 OA
ENDBRANCH   1   7
BRANCH   4  10
HETATM   10  N   LIG     1      19.767  39.475  19.371  1.00  0.00    -0.399 N 
HETATM   11  H   LIG     1      20.422  40.106  19.885  1.00  0.00     0.156 HD
HETATM   12  H   LIG     1      19.705  39.563  18.332  1.00  0.00     0.156 HD
ENDBRANCH   4  10
TORSDOF 2
ENDMDL
MODEL 7
REMARK VINA RESULT:      -5.8      9.147     10.214
REMARK  2 active torsions:
REMARK  status: ('A' for Active; 'I' for Inactive)
REMARK    1  A    between atoms: C_2  and  C_3 
REMARK    2  A    between atoms: C_6  and  N_7 
ROOT
HETATM    1  C   LIG     1      15.283  31.657  15.241  1.00  0.00     0.009 A 
HETATM    2  C   LIG     1      14.091  31.398  15.946  1.00  0.00     0.017 A 
HETATM    3  C   LIG     1      13.238  30.366  15.541  1.00  0.00     0.030 A 
HETATM    4  C   LIG     1      13.565  29.572  14.436  1.00  0.00     0.025 A 
HETATM    5  C   LIG     1      14.755  29.814  13.738  1.00  0.00     0.030 A 
HETATM    6  C   LIG     1      15.610  30.845  14.140  1.00  0.00     0.017 A 
ENDROOT
BRANCH   1   7
HETATM    7  C   LIG     1      16.207  32.740  15.659  1.00  0.00     0.155 C 
HETATM    8  C   LIG     1      17.512  32.995  14.966  1.00  0.00     0.096 C 
HETATM    9  O   LIG     1      15.901  33.471  16.640  1.00  0.00    -0.293 OA
ENDBRANCH   1   7
BRANCH   4  10
HETATM   10  N   LIG     1      12.691  28.516  14.024  1.00  0.00    -0.399 N 
HETATM   11  H   LIG     1      12.953  27.517  14.174  1.00  0.00     0.156 HD
HETATM   12  H   LIG     1      11.778  28.728  13.564  1.00  0.00     0.156 HD
ENDBRANCH   4  10
TORSDOF 2
ENDMDL
MODEL 8
REMARK VINA RESULT:      -5.8      8.689      9.545
REMARK  2 active torsions:
REMARK  status: ('A' for Active; 'I' for Inactive)
REMARK    1  A    between atoms: C_2  and  C_3 
REMARK    2  A    between atoms: C_6  and  N_7 
ROOT
HETATM    1  C   LIG     1      14.409  30.717  15.252  1.00  0.00     0.009 A 
HETATM    2  C   LIG     1      13.561  31.024  16.334  1.00  0.00     0.017 A 
HETATM    3  C   LIG     1      13.807  32.147  17.131  1.00  0.00     0.030 A 
HETATM    4  C   LIG     1      14.896  32.983  16.857  1.00  0.00     0.025 A 
HETATM    5  C   LIG     1      15.736  32.692  15.774  1.00  0.00     0.030 A 
HETATM    6  C   LIG     1      15.492  31.571  14.976  1.00  0.00     0.017 A 
ENDROOT
BRANCH   1   7
HETATM    7  C   LIG     1      14.160  29.537  14.388  1.00  0.00     0.155 C 
HETATM    8  C   LIG     1      15.272  28.777  13.727  1.00  0.00     0.096 C 
HETATM    9  O   LIG     1      12.976  29.156  14.185  1.00  0.00    -0.293 OA
ENDBRANCH   1   7
BRANCH   4  10
HETATM   10  N   LIG     1      15.145  34.132  17.673  1.00  0.00    -0.399 N 
HETATM   11  H   LIG     1      15.629  34.971  17.281  1.00  0.00     0.156 HD
HETATM   12  H   LIG     1      14.850  34.149  18.674  1.00  0.00     0.156 HD
ENDBRANCH   4  10
TORSDOF 2
ENDMDL
MODEL 9
REMARK VINA RESULT:      -5.8      3.009      4.243
REMARK  2 active torsions:
REMARK  status: ('A' for Active; 'I' for Inactive)
REMARK    1  A    between atoms: C_2  and  C_3 
REMARK    2  A    between atoms: C_6  and  N_7 
ROOT
HETATM    1  C   LIG     1      17.617  37.612  21.402  1.00  0.00     0.009 A 
HETATM    2  C   LIG     1      17.676  36.463  20.589  1.00  0.00     0.017 A 
HETATM    3  C   LIG     1      16.649  35.514  20.627  1.00  0.00     0.030 A 
HETATM    4  C   LIG     1      15.546  35.700  21.468  1.00  0.00     0.025 A 
HETATM    5  C   LIG     1      15.473  36.847  22.270  1.00  0.00     0.030 A 
HETATM    6  C   LIG     1      16.498  37.797  22.234  1.00  0.00     0.017 A 
ENDROOT
BRANCH   1   7
HETATM    7  C   LIG     1      18.690  38.636  21.369  1.00  0.00     0.155 C 
HETATM    8  C   LIG     1      19.372  39.045  20.098  1.00  0.00     0.096 C 
HETATM    9  O   LIG     1      19.060  39.180  22.444  1.00  0.00    -0.293 OA
ENDBRANCH   1   7
BRANCH   4  10
HETATM   10  N   LIG     1      14.497  34.729  21.506  1.00  0.00    -0.399 N 
HETATM   11  H   LIG     1      14.685  33.729  21.269  1.00  0.00     0.156 HD
HETATM   12  H   LIG     1      13.524  35.003  21.769  1.00  0.00     0.156 HD
ENDBRANCH   4  10
TORSDOF 2
ENDMDL
MODEL 10
REMARK VINA RESULT:      -5.6      7.947      9.010
REMARK  2 active torsions:
REMARK  status: ('A' for Active; 'I' for Inactive)
REMARK    1  A    between atoms: C_2  and  C_3 
REMARK    2  A    between atoms: C_6  and  N_7 
ROOT
HETATM    1  C   LIG     1      15.689  32.693  15.648  1.00  0.00     0.009 A 
HETATM    2  C   LIG     1      15.429  31.532  14.896  1.00  0.00     0.017 A 
HETATM    3  C   LIG     1      14.359  30.695  15.231  1.00  0.00     0.030 A 
HETATM    4  C   LIG     1      13.529  31.008  16.314  1.00  0.00     0.025 A 
HETATM    5  C   LIG     1      13.774  32.169  17.059  1.00  0.00     0.030 A 
HETATM    6  C   LIG     1      14.842  33.008  16.726  1.00  0.00     0.017 A 
ENDROOT
BRANCH   1   7
HETATM    7  C   LIG     1      16.812  33.600  15.303  1.00  0.00     0.155 C 
HETATM    8  C   LIG     1      17.963  33.163  14.447  1.00  0.00     0.096 C 
HETATM    9  O   LIG     1      16.817  34.778  15.751  1.00  0.00    -0.293 OA
ENDBRANCH   1   7
BRANCH   4  10
HETATM   10  N   LIG     1      12.436  30.152  16.655  1.00  0.00    -0.399 N 
HETATM   11  H   LIG     1      11.584  30.532  17.125  1.00  0.00     0.156 HD
HETATM   12  H   LIG     1      12.471  29.130  16.441  1.00  0.00     0.156 HD
ENDBRANCH   4  10
TORSDOF 2
ENDMDL
MODEL 11
REMARK VINA RESULT:      -5.6      8.500      9.685
REMARK  2 active torsions:
REMARK  status: ('A' for Active; 'I' for Inactive)
REMARK    1  A    between atoms: C_2  and  C_3 
REMARK    2  A    between atoms: C_6  and  N_7 
ROOT
HETATM    1  C   LIG     1      15.875  32.065  15.148  1.00  0.00     0.009 A 
HETATM    2  C   LIG     1      15.259  32.602  16.294  1.00  0.00     0.017 A 
HETATM    3  C   LIG     1      14.089  32.030  16.804  1.00  0.00     0.030 A 
HETATM    4  C   LIG     1      13.522  30.909  16.185  1.00  0.00     0.025 A 
HETATM    5  C   LIG     1      14.137  30.361  15.052  1.00  0.00     0.030 A 
HETATM    6  C   LIG     1      15.307  30.930  14.541  1.00  0.00     0.017 A 
ENDROOT
BRANCH   1   7
HETATM    7  C   LIG     1      17.122  32.650  14.597  1.00  0.00     0.155 C 
HETATM    8  C   LIG     1      17.185  33.266  13.231  1.00  0.00     0.096 C 
HETATM    9  O   LIG     1      18.177  32.624  15.286  1.00  0.00    -0.293 OA
ENDBRANCH   1   7
BRANCH   4  10
HETATM   10  N   LIG     1      12.326  30.325  16.709  1.00  0.00    -0.399 N 
HETATM   11  H   LIG     1      12.325  29.853  17.640  1.00  0.00     0.156 HD
HETATM   12  H   LIG     1      11.434  30.359  16.167  1.00  0.00     0.156 HD
ENDBRANCH   4  10
TORSDOF 2
ENDMDL
MODEL 12
REMARK VINA RESULT:      -5.6      3.126      4.206
REMARK  2 active torsions:
REMARK  status: ('A' for Active; 'I' for Inactive)
REMARK    1  A    between atoms: C_2  and  C_3 
REMARK    2  A    between atoms: C_6  and  N_7 
ROOT
HETATM    1  C   LIG     1      18.214  38.168  21.405  1.00  0.00     0.009 A 
HETATM    2  C   LIG     1      17.346  37.080  21.618  1.00  0.00     0.017 A 
HETATM    3  C   LIG     1      16.897  36.773  22.907  1.00  0.00     0.030 A 
HETATM    4  C   LIG     1      17.298  37.550  23.999  1.00  0.00     0.025 A 
HETATM    5  C   LIG     1      18.150  38.643  23.794  1.00  0.00     0.030 A 
HETATM    6  C   LIG     1      18.601  38.952  22.507  1.00  0.00     0.017 A 
ENDROOT
BRANCH   1   7
HETATM    7  C   LIG     1      18.695  38.517  20.046  1.00  0.00     0.155 C 
HETATM    8  C   LIG     1      18.909  37.484  18.980  1.00  0.00     0.096 C 
HETATM    9  O   LIG     1      18.948  39.720  19.768  1.00  0.00    -0.293 OA
ENDBRANCH   1   7
BRANCH   4  10
HETATM   10  N   LIG     1      16.837  37.235  25.316  1.00  0.00    -0.399 N 
HETATM   11  H   LIG     1      15.847  36.946  25.481  1.00  0.00     0.156 HD
HETATM   12  H   LIG     1      17.482  37.290  26.135  1.00  0.00     0.156 HD
ENDBRANCH   4  10
TORSDOF 2
ENDMDL
MODEL 13
REMARK VINA RESULT:      -5.6      9.013      9.892
REMARK  2 active torsions:
REMARK  status: ('A' for Active; 'I' for Inactive)
REMARK    1  A    between atoms: C_2  and  C_3 
REMARK    2  A    between atoms: C_6  and  N_7 
ROOT
HETATM    1  C   LIG     1      14.830  31.750  15.751  1.00  0.00     0.009 A 
HETATM    2  C   LIG     1      15.490  31.182  14.644  1.00  0.00     0.017 A 
HETATM    3  C   LIG     1      14.932  30.090  13.971  1.00  0.00     0.030 A 
HETATM    4  C   LIG     1      13.706  29.556  14.386  1.00  0.00     0.025 A 
HETATM    5  C   LIG     1      13.037  30.124  15.477  1.00  0.00     0.030 A 
HETATM    6  C   LIG     1      13.592  31.216  16.152  1.00  0.00     0.017 A 
ENDROOT
BRANCH   1   7
HETATM    7  C   LIG     1      15.400  32.915  16.473  1.00  0.00     0.155 C 
HETATM    8  C   LIG     1      15.157  33.152  17.934  1.00  0.00     0.096 C 
HETATM    9  O   LIG     1      16.104  33.750  15.844  1.00  0.00    -0.293 OA
ENDBRANCH   1   7
BRANCH   4  10
HETATM   10  N   LIG     1      13.137  28.439  13.696  1.00  0.00    -0.399 N 
HETATM   11  H   LIG     1      12.197  28.069  13.961  1.00  0.00     0.156 HD
HETATM   12  H   LIG     1      13.652  27.974  12.915  1.00  0.00     0.156 HD
ENDBRANCH   4  10
TORSDOF 2
ENDMDL
MODEL 14
REMARK VINA RESULT:      -5.5      2.128      2.771
REMARK  2 active torsions:
REMARK  status: ('A' for Active; 'I' for Inactive)
REMARK    1  A    between atoms: C_2  and  C_3 
REMARK    2  A    between atoms: C_6  and  N_7 
ROOT
HETATM    1  C   LIG     1      16.807  36.184  20.797  1.00  0.00     0.009 A 
HETATM    2  C   LIG     1      16.513  36.950  21.942  1.00  0.00     0.017 A 
HETATM    3  C   LIG     1      17.301  38.056  22.275  1.00  0.00     0.030 A 
HETATM    4  C   LIG     1      18.386  38.420  21.469  1.00  0.00     0.025 A 
HETATM    5  C   LIG     1      18.676  37.672  20.321  1.00  0.00     0.030 A 
HETATM    6  C   LIG     1      17.891  36.565  19.985  1.00  0.00     0.017 A 
ENDROOT
BRANCH   1   7
HETATM    7  C   LIG     1      15.978  35.012  20.419  1.00  0.00     0.155 C 
HETATM    8  C   LIG     1      15.143  34.264  21.416  1.00  0.00     0.096 C 
HETATM    9  O   LIG     1      15.977  34.614  19.224  1.00  0.00    -0.293 OA
ENDBRANCH   1   7
BRANCH   4  10
HETATM   10  N   LIG     1      19.190  39.553  21.811  1.00  0.00    -0.399 N 
HETATM   11  H   LIG     1      18.847  40.524  21.640  1.00  0.00     0.156 HD
HETATM   12  H   LIG     1      20.135  39.427  22.238  1.00  0.00     0.156 HD
ENDBRANCH   4  10
TORSDOF 2
ENDMDL
MODEL 15
REMARK VINA RESULT:      -5.5      3.284      4.461
REMARK  2 active torsions:
REMARK  status: ('A' for Active; 'I' for Inactive)
REMARK    1  A    between atoms: C_2  and  C_3 
REMARK    2  A    between atoms: C_6  and  N_7 
ROOT
HETATM    1  C   LIG     1      17.445  36.008  24.935  1.00  0.00     0.009 A 
HETATM    2  C   LIG     1      17.692  37.365  25.214  1.00  0.00     0.017 A 
HETATM    3  C   LIG     1      17.568  38.330  24.209  1.00  0.00     0.030 A 
HETATM    4  C   LIG     1      17.189  37.957  22.914  1.00  0.00     0.025 A 
HETATM    5  C   LIG     1      16.928  36.610  22.631  1.00  0.00     0.030 A 
HETATM    6  C   LIG     1      17.050  35.643  23.634  1.00  0.00     0.017 A 
ENDROOT
BRANCH   1   7
HETATM    7  C   LIG     1      17.560  34.970  25.989  1.00  0.00     0.155 C 
HETATM    8  C   LIG     1      18.854  34.675  26.688  1.00  0.00     0.096 C 
HETATM    9  O   LIG     1      16.544  34.295  26.308  1.00  0.00    -0.293 OA
ENDBRANCH   1   7
BRANCH   4  10
HETATM   10  N   LIG     1      17.062  38.945  21.887  1.00  0.00    -0.399 N 
HETATM   11  H   LIG     1      17.375  39.928  22.050  1.00  0.00     0.156 HD
HETATM   12  H   LIG     1      16.654  38.700  20.958  1.00  0.00     0.156 HD
ENDBRANCH   4  10
TORSDOF 2
ENDMDL
MODEL 16
REMARK VINA RESULT:      -5.2      8.747      9.498
REMARK  2 active torsions:
REMARK  status: ('A' for Active; 'I' for Inactive)
REMARK    1  A    between atoms: C_2  and  C_3 
REMARK    2  A    between atoms: C_6  and  N_7 
ROOT
HETATM    1  C   LIG     1      14.947  30.748  14.700  1.00  0.00     0.009 A 
HETATM    2  C   LIG     1      15.928  31.427  13.951  1.00  0.00     0.017 A 
HETATM    3  C   LIG     1      16.450  32.643  14.404  1.00  0.00     0.030 A 
HETATM    4  C   LIG     1      16.010  33.195  15.613  1.00  0.00     0.025 A 
HETATM    5  C   LIG     1      15.044  32.519  16.370  1.00  0.00     0.030 A 
HETATM    6  C   LIG     1      14.521  31.303  15.920  1.00  0.00     0.017 A 
ENDROOT
BRANCH   1   7
HETATM    7  C   LIG     1      14.387  29.453  14.243  1.00  0.00     0.155 C 
HETATM    8  C   LIG     1      15.250  28.349  13.707  1.00  0.00     0.096 C 
HETATM    9  O   LIG     1      13.142  29.265  14.289  1.00  0.00    -0.293 OA
ENDBRANCH   1   7
BRANCH   4  10
HETATM   10  N   LIG     1      16.545  34.438  16.075  1.00  0.00    -0.399 N 
HETATM   11  H   LIG     1      17.547  34.683  15.910  1.00  0.00     0.156 HD
HETATM   12  H   LIG     1      15.944  35.122  16.585  1.00  0.00     0.156 HD
ENDBRANCH   4  10
TORSDOF 2
ENDMDL
MODEL 17
REMARK VINA RESULT:      -5.1      7.749      8.422
REMARK  2 active torsions:
REMARK  status: ('A' for Active; 'I' for Inactive)
REMARK    1  A    between atoms: C_2  and  C_3 
REMARK    2  A    between atoms: C_6  and  N_7 
ROOT
HETATM    1  C   LIG     1      14.896  31.813  16.065  1.00  0.00     0.009 A 
HETATM    2  C   LIG     1      14.834  31.043  14.888  1.00  0.00     0.017 A 
HETATM    3  C   LIG     1      15.629  31.369  13.784  1.00  0.00     0.030 A 
HETATM    4  C   LIG     1      16.503  32.460  13.841  1.00  0.00     0.025 A 
HETATM    5  C   LIG     1      16.582  33.224  15.013  1.00  0.00     0.030 A 
HETATM    6  C   LIG     1      15.788  32.900  16.118  1.00  0.00     0.017 A 
ENDROOT
BRANCH   1   7
HETATM    7  C   LIG     1      14.069  31.479  17.250  1.00  0.00     0.155 C 
HETATM    8  C   LIG     1      14.520  31.766  18.652  1.00  0.00     0.096 C 
HETATM    9  O   LIG     1      12.950  30.923  17.088  1.00  0.00    -0.293 OA
ENDBRANCH   1   7
BRANCH   4  10
HETATM   10  N   LIG     1      17.317  32.792  12.712  1.00  0.00    -0.399 N 
HETATM   11  H   LIG     1      18.314  32.487  12.663  1.00  0.00     0.156 HD
HETATM   12  H   LIG     1      16.926  33.345  11.916  1.00  0.00     0.156 HD
ENDBRANCH   4  10
TORSDOF 2
ENDMDL
MODEL 18
REMARK VINA RESULT:      -5.1      2.983      3.935
REMARK  2 active torsions:
REMARK  status: ('A' for Active; 'I' for Inactive)
REMARK    1  A    between atoms: C_2  and  C_3 
REMARK    2  A    between atoms: C_6  and  N_7 
ROOT
HETATM    1  C   LIG     1      17.032  37.211  22.112  1.00  0.00     0.009 A 
HETATM    2  C   LIG     1      15.776  36.608  22.314  1.00  0.00     0.017 A 
HETATM    3  C   LIG     1      15.265  35.705  21.376  1.00  0.00     0.030 A 
HETATM    4  C   LIG     1      16.000  35.385  20.229  1.00  0.00     0.025 A 
HETATM    5  C   LIG     1      17.257  35.971  20.028  1.00  0.00     0.030 A 
HETATM    6  C   LIG     1      17.771  36.873  20.964  1.00  0.00     0.017 A 
ENDROOT
BRANCH   1   7
HETATM    7  C   LIG     1      17.598  38.163  23.100  1.00  0.00     0.155 C 
HETATM    8  C   LIG     1      16.995  38.366  24.458  1.00  0.00     0.096 C 
HETATM    9  O   LIG     1      18.615  38.842  22.793  1.00  0.00    -0.293 OA
ENDBRANCH   1   7
BRANCH   4  10
HETATM   10  N   LIG     1      15.475  34.461  19.271  1.00  0.00    -0.399 N 
HETATM   11  H   LIG     1      14.755  34.762  18.578  1.00  0.00     0.156 HD
HETATM   12  H   LIG     1      15.803  33.470  19.250  1.00  0.00     0.156 HD
ENDBRANCH   4  10
TORSDOF 2
ENDMDL
MODEL 19
REMARK VINA RESULT:      -4.9      8.442      9.368
REMARK  2 active torsions:
REMARK  status: ('A' for Active; 'I' for Inactive)
REMARK    1  A    between atoms: C_2  and  C_3 
REMARK    2  A    between atoms: C_6  and  N_7 
ROOT
HETATM    1  C   LIG     1      14.926  31.127  15.267  1.00  0.00     0.009 A 
HETATM    2  C   LIG     1      15.867  32.133  15.558  1.00  0.00     0.017 A 
HETATM    3  C   LIG     1      15.820  32.816  16.778  1.00  0.00     0.030 A 
HETATM    4  C   LIG     1      14.842  32.500  17.728  1.00  0.00     0.025 A 
HETATM    5  C   LIG     1      13.910  31.491  17.451  1.00  0.00     0.030 A 
HETATM    6  C   LIG     1      13.955  30.807  16.233  1.00  0.00     0.017 A 
ENDROOT
BRANCH   1   7
HETATM    7  C   LIG     1      14.964  30.383  13.984  1.00  0.00     0.155 C 
HETATM    8  C   LIG     1      14.552  28.945  13.876  1.00  0.00     0.096 C 
HETATM    9  O   LIG     1      15.366  30.967  12.941  1.00  0.00    -0.293 OA
ENDBRANCH   1   7
BRANCH   4  10
HETATM   10  N   LIG     1      14.796  33.199  18.975  1.00  0.00    -0.399 N 
HETATM   11  H   LIG     1      15.501  33.008  19.721  1.00  0.00     0.156 HD
HETATM   12  H   LIG     1      14.055  33.912  19.161  1.00  0.00     0.156 HD
ENDBRANCH   4  10
TORSDOF 2
ENDMDL
MODEL 20
REMARK VINA RESULT:      -4.8      8.189      8.948
REMARK  2 active torsions:
REMARK  status: ('A' for Active; 'I' for Inactive)
REMARK    1  A    between atoms: C_2  and  C_3 
REMARK    2  A    between atoms: C_6  and  N_7 
ROOT
HETATM    1  C   LIG     1      14.407  31.279  15.494  1.00  0.00     0.009 A 
HETATM    2  C   LIG     1      14.557  32.291  16.462  1.00  0.00     0.017 A 
HETATM    3  C   LIG     1      15.596  33.222  16.360  1.00  0.00     0.030 A 
HETATM    4  C   LIG     1      16.493  33.164  15.287  1.00  0.00     0.025 A 
HETATM    5  C   LIG     1      16.342  32.169  14.312  1.00  0.00     0.030 A 
HETATM    6  C   LIG     1      15.305  31.237  14.412  1.00  0.00     0.017 A 
ENDROOT
BRANCH   1   7
HETATM    7  C   LIG     1      13.306  30.288  15.579  1.00  0.00     0.155 C 
HETATM    8  C   LIG     1      13.034  29.295  14.489  1.00  0.00     0.096 C 
HETATM    9  O   LIG     1      12.558  30.278  16.593  1.00  0.00    -0.293 OA
ENDBRANCH   1   7
BRANCH   4  10
HETATM   10  N   LIG     1      17.554  34.117  15.183  1.00  0.00    -0.399 N 
HETATM   11  H   LIG     1      17.354  35.142  15.182  1.00  0.00     0.156 HD
HETATM   12  H   LIG     1      18.548  33.804  15.106  1.00  0.00     0.156 HD
ENDBRANCH   4  10
TORSDOF 2
ENDMDL
