REMARK  3 active torsions:
REMARK  status: ('A' for Active; 'I' for Inactive)
REMARK    1  A    between atoms: O_1  and  C_2 
REMARK    2  A    between atoms: C_5  and  C_6 
REMARK    3  A    between atoms: C_6  and  O_7 
ROOT
HETATM    1  C   LIG     1       1.920  -0.120   0.177  1.00  0.00     0.065 A 
HETATM    2  C   LIG     1       1.185   0.822   0.902  1.00  0.00     0.037 A 
HETATM    3  C   LIG     1      -0.204   0.893   0.761  1.00  0.00     0.021 A 
HETATM    4  C   LIG     1      -0.877   0.019  -0.112  1.00  0.00     0.037 A 
HETATM    5  C   LIG     1      -0.131  -0.926  -0.839  1.00  0.00     0.021 A 
HETATM    6  C   LIG     1       1.259  -0.995  -0.695  1.00  0.00     0.037 A 
ENDROOT
BRANCH   4   7
HETATM    7  C   LIG     1      -2.347   0.097  -0.261  1.00  0.00     0.176 C 
HETATM    8  O   LIG     1      -2.952  -0.686  -1.043  1.00  0.00    -0.646 OA
BRANCH   7   9
HETATM    9  O   LIG     1      -3.077   1.036   0.463  1.00  0.00    -0.773 OA
HETATM   10  H   LIG     1      -4.084   1.097   0.369  1.00  0.00     0.167 HD
ENDBRANCH   7   9
ENDBRANCH   4   7
BRANCH   1  11
HETATM   11  O   LIG     1       3.303  -0.179   0.329  1.00  0.00    -0.361 OA
HETATM   12  H   LIG     1       3.864  -0.851  -0.182  1.00  0.00     0.217 HD
ENDBRANCH   1  11
TORSDOF 3
