MODEL 1
REMARK VINA RESULT:      -6.6      0.000      0.000
REMARK  2 active torsions:
REMARK  status: ('A' for Active; 'I' for Inactive)
REMARK    1  A    between atoms: C_5  and  C_6 
REMARK    2  A    between atoms: C_6  and  O_7 
ROOT
HETATM    1  C   LIG     1      19.867  38.587  19.032  1.00  0.00     0.048 C 
HETATM    2  C   LIG     1      18.955  38.360  20.201  1.00  0.00    -0.062 A 
HETATM    3  C   LIG     1      18.290  37.134  20.337  1.00  0.00     0.008 A 
HETATM    4  C   LIG     1      17.436  36.908  21.421  1.00  0.00     0.019 A 
HETATM    5  C   LIG     1      17.230  37.909  22.387  1.00  0.00     0.037 A 
HETATM    6  C   LIG     1      17.909  39.133  22.252  1.00  0.00     0.019 A 
HETATM    7  C   LIG     1      18.761  39.357  21.167  1.00  0.00     0.008 A 
ENDROOT
BRANCH   5   8
HETATM    8  C   LIG     1      16.332  37.684  23.546  1.00  0.00     0.176 C 
HETATM    9  O   LIG     1      16.792  37.179  24.605  1.00  0.00    -0.646 OA
BRANCH   8  10
HETATM   10  O   LIG     1      14.981  38.033  23.509  1.00  0.00    -0.773 OA
HETATM   11  H   LIG     1      14.666  38.994  23.514  1.00  0.00     0.167 HD
ENDBRANCH   8  10
ENDBRANCH   5   8
TORSDOF 2
ENDMDL
MODEL 2
REMARK VINA RESULT:      -6.6      2.723      4.581
REMARK  2 active torsions:
REMARK  status: ('A' for Active; 'I' for Inactive)
REMARK    1  A    between atoms: C_5  and  C_6 
REMARK    2  A    between atoms: C_6  and  O_7 
ROOT
HETATM    1  C   LIG     1      18.226  34.715  26.527  1.00  0.00     0.048 C 
HETATM    2  C   LIG     1      17.801  35.740  25.519  1.00  0.00    -0.062 A 
HETATM    3  C   LIG     1      17.937  37.104  25.813  1.00  0.00     0.008 A 
HETATM    4  C   LIG     1      17.544  38.071  24.882  1.00  0.00     0.019 A 
HETATM    5  C   LIG     1      17.004  37.689  23.641  1.00  0.00     0.037 A 
HETATM    6  C   LIG     1      16.882  36.319  23.346  1.00  0.00     0.019 A 
HETATM    7  C   LIG     1      17.274  35.354  24.278  1.00  0.00     0.008 A 
ENDROOT
BRANCH   5   8
HETATM    8  C   LIG     1      16.587  38.702  22.640  1.00  0.00     0.176 C 
HETATM    9  O   LIG     1      17.407  39.089  21.765  1.00  0.00    -0.646 OA
BRANCH   8  10
HETATM   10  O   LIG     1      15.298  39.235  22.625  1.00  0.00    -0.773 OA
HETATM   11  H   LIG     1      14.595  38.944  21.959  1.00  0.00     0.167 HD
ENDBRANCH   8  10
ENDBRANCH   5   8
TORSDOF 2
ENDMDL
MODEL 3
REMARK VINA RESULT:      -6.5      3.363      4.576
REMARK  2 active torsions:
REMARK  status: ('A' for Active; 'I' for Inactive)
REMARK    1  A    between atoms: C_5  and  C_6 
REMARK    2  A    between atoms: C_6  and  O_7 
ROOT
HETATM    1  C   LIG     1      16.667  36.166  22.774  1.00  0.00     0.048 C 
HETATM    2  C   LIG     1      17.423  36.945  21.739  1.00  0.00    -0.062 A 
HETATM    3  C   LIG     1      17.878  36.303  20.580  1.00  0.00     0.008 A 
HETATM    4  C   LIG     1      18.585  37.018  19.606  1.00  0.00     0.019 A 
HETATM    5  C   LIG     1      18.851  38.388  19.780  1.00  0.00     0.037 A 
HETATM    6  C   LIG     1      18.381  39.029  20.940  1.00  0.00     0.019 A 
HETATM    7  C   LIG     1      17.676  38.314  21.912  1.00  0.00     0.008 A 
ENDROOT
BRANCH   5   8
HETATM    8  C   LIG     1      19.594  39.161  18.755  1.00  0.00     0.176 C 
HETATM    9  O   LIG     1      18.991  39.585  17.734  1.00  0.00    -0.646 OA
BRANCH   8  10
HETATM   10  O   LIG     1      20.952  39.451  18.893  1.00  0.00    -0.773 OA
HETATM   11  H   LIG     1      21.402  39.533  19.795  1.00  0.00     0.167 HD
ENDBRANCH   8  10
ENDBRANCH   5   8
TORSDOF 2
ENDMDL
MODEL 4
REMARK VINA RESULT:      -6.5      3.367      4.808
REMARK  2 active torsions:
REMARK  status: ('A' for Active; 'I' for Inactive)
REMARK    1  A    between atoms: C_5  and  C_6 
REMARK    2  A    between atoms: C_6  and  O_7 
ROOT
HETATM    1  C   LIG     1      16.667  36.131  22.735  1.00  0.00     0.048 C 
HETATM    2  C   LIG     1      17.425  36.914  21.706  1.00  0.00    -0.062 A 
HETATM    3  C   LIG     1      17.657  38.282  21.904  1.00  0.00     0.008 A 
HETATM    4  C   LIG     1      18.362  39.026  20.951  1.00  0.00     0.019 A 
HETATM    5  C   LIG     1      18.844  38.412  19.781  1.00  0.00     0.037 A 
HETATM    6  C   LIG     1      18.618  37.037  19.593  1.00  0.00     0.019 A 
HETATM    7  C   LIG     1      17.913  36.295  20.545  1.00  0.00     0.008 A 
ENDROOT
BRANCH   5   8
HETATM    8  C   LIG     1      19.598  39.185  18.764  1.00  0.00     0.176 C 
HETATM    9  O   LIG     1      19.003  39.619  17.742  1.00  0.00    -0.646 OA
BRANCH   8  10
HETATM   10  O   LIG     1      20.957  39.464  18.910  1.00  0.00    -0.773 OA
HETATM   11  H   LIG     1      21.337  39.901  19.739  1.00  0.00     0.167 HD
ENDBRANCH   8  10
ENDBRANCH   5   8
TORSDOF 2
ENDMDL
MODEL 5
REMARK VINA RESULT:      -6.2      3.270      4.391
REMARK  2 active torsions:
REMARK  status: ('A' for Active; 'I' for Inactive)
REMARK    1  A    between atoms: C_5  and  C_6 
REMARK    2  A    between atoms: C_6  and  O_7 
ROOT
HETATM    1  C   LIG     1      18.312  36.621  26.624  1.00  0.00     0.048 C 
HETATM    2  C   LIG     1      17.671  36.433  25.281  1.00  0.00    -0.062 A 
HETATM    3  C   LIG     1      17.518  35.141  24.759  1.00  0.00     0.008 A 
HETATM    4  C   LIG     1      16.922  34.950  23.508  1.00  0.00     0.019 A 
HETATM    5  C   LIG     1      16.474  36.051  22.756  1.00  0.00     0.037 A 
HETATM    6  C   LIG     1      16.620  37.344  23.290  1.00  0.00     0.019 A 
HETATM    7  C   LIG     1      17.216  37.533  24.540  1.00  0.00     0.008 A 
ENDROOT
BRANCH   5   8
HETATM    8  C   LIG     1      15.836  35.865  21.429  1.00  0.00     0.176 C 
HETATM    9  O   LIG     1      16.554  35.704  20.407  1.00  0.00    -0.646 OA
BRANCH   8  10
HETATM   10  O   LIG     1      14.449  35.848  21.276  1.00  0.00    -0.773 OA
HETATM   11  H   LIG     1      13.883  36.684  21.343  1.00  0.00     0.167 HD
ENDBRANCH   8  10
ENDBRANCH   5   8
TORSDOF 2
ENDMDL
MODEL 6
REMARK VINA RESULT:      -6.2      8.385      9.537
REMARK  2 active torsions:
REMARK  status: ('A' for Active; 'I' for Inactive)
REMARK    1  A    between atoms: C_5  and  C_6 
REMARK    2  A    between atoms: C_6  and  O_7 
ROOT
HETATM    1  C   LIG     1      13.288  28.990  14.256  1.00  0.00     0.048 C 
HETATM    2  C   LIG     1      13.786  30.181  15.019  1.00  0.00    -0.062 A 
HETATM    3  C   LIG     1      14.987  30.796  14.641  1.00  0.00     0.008 A 
HETATM    4  C   LIG     1      15.465  31.908  15.344  1.00  0.00     0.019 A 
HETATM    5  C   LIG     1      14.749  32.419  16.441  1.00  0.00     0.037 A 
HETATM    6  C   LIG     1      13.538  31.805  16.809  1.00  0.00     0.019 A 
HETATM    7  C   LIG     1      13.063  30.694  16.105  1.00  0.00     0.008 A 
ENDROOT
BRANCH   5   8
HETATM    8  C   LIG     1      15.238  33.600  17.194  1.00  0.00     0.176 C 
HETATM    9  O   LIG     1      15.667  34.606  16.568  1.00  0.00    -0.646 OA
BRANCH   8  10
HETATM   10  O   LIG     1      15.224  33.641  18.589  1.00  0.00    -0.773 OA
HETATM   11  H   LIG     1      15.440  32.835  19.160  1.00  0.00     0.167 HD
ENDBRANCH   8  10
ENDBRANCH   5   8
TORSDOF 2
ENDMDL
MODEL 7
REMARK VINA RESULT:      -6.2      1.042      2.065
REMARK  2 active torsions:
REMARK  status: ('A' for Active; 'I' for Inactive)
REMARK    1  A    between atoms: C_5  and  C_6 
REMARK    2  A    between atoms: C_6  and  O_7 
ROOT
HETATM    1  C   LIG     1      18.909  37.313  18.799  1.00  0.00     0.048 C 
HETATM    2  C   LIG     1      18.428  37.500  20.207  1.00  0.00    -0.062 A 
HETATM    3  C   LIG     1      18.752  38.673  20.903  1.00  0.00     0.008 A 
HETATM    4  C   LIG     1      18.311  38.860  22.217  1.00  0.00     0.019 A 
HETATM    5  C   LIG     1      17.541  37.874  22.859  1.00  0.00     0.037 A 
HETATM    6  C   LIG     1      17.209  36.704  22.152  1.00  0.00     0.019 A 
HETATM    7  C   LIG     1      17.652  36.518  20.839  1.00  0.00     0.008 A 
ENDROOT
BRANCH   5   8
HETATM    8  C   LIG     1      17.061  38.060  24.250  1.00  0.00     0.176 C 
HETATM    9  O   LIG     1      15.830  37.976  24.503  1.00  0.00    -0.646 OA
BRANCH   8  10
HETATM   10  O   LIG     1      17.940  38.312  25.305  1.00  0.00    -0.773 OA
HETATM   11  H   LIG     1      18.217  37.598  25.966  1.00  0.00     0.167 HD
ENDBRANCH   8  10
ENDBRANCH   5   8
TORSDOF 2
ENDMDL
MODEL 8
REMARK VINA RESULT:      -6.2      3.068      4.720
REMARK  2 active torsions:
REMARK  status: ('A' for Active; 'I' for Inactive)
REMARK    1  A    between atoms: C_5  and  C_6 
REMARK    2  A    between atoms: C_6  and  O_7 
ROOT
HETATM    1  C   LIG     1      18.320  36.544  26.769  1.00  0.00     0.048 C 
HETATM    2  C   LIG     1      17.782  36.368  25.381  1.00  0.00    -0.062 A 
HETATM    3  C   LIG     1      17.564  37.492  24.572  1.00  0.00     0.008 A 
HETATM    4  C   LIG     1      17.061  37.343  23.275  1.00  0.00     0.019 A 
HETATM    5  C   LIG     1      16.764  36.066  22.767  1.00  0.00     0.037 A 
HETATM    6  C   LIG     1      16.996  34.941  23.579  1.00  0.00     0.019 A 
HETATM    7  C   LIG     1      17.497  35.092  24.875  1.00  0.00     0.008 A 
ENDROOT
BRANCH   5   8
HETATM    8  C   LIG     1      16.236  35.891  21.392  1.00  0.00     0.176 C 
HETATM    9  O   LIG     1      14.991  35.887  21.197  1.00  0.00    -0.646 OA
BRANCH   8  10
HETATM   10  O   LIG     1      17.081  35.744  20.292  1.00  0.00    -0.773 OA
HETATM   11  H   LIG     1      16.737  35.696  19.342  1.00  0.00     0.167 HD
ENDBRANCH   8  10
ENDBRANCH   5   8
TORSDOF 2
ENDMDL
MODEL 9
REMARK VINA RESULT:      -6.2      2.672      3.251
REMARK  2 active torsions:
REMARK  status: ('A' for Active; 'I' for Inactive)
REMARK    1  A    between atoms: C_5  and  C_6 
REMARK    2  A    between atoms: C_6  and  O_7 
ROOT
HETATM    1  C   LIG     1      16.219  35.243  20.499  1.00  0.00     0.048 C 
HETATM    2  C   LIG     1      16.563  35.847  21.827  1.00  0.00    -0.062 A 
HETATM    3  C   LIG     1      16.916  35.016  22.899  1.00  0.00     0.008 A 
HETATM    4  C   LIG     1      17.238  35.565  24.145  1.00  0.00     0.019 A 
HETATM    5  C   LIG     1      17.208  36.957  24.339  1.00  0.00     0.037 A 
HETATM    6  C   LIG     1      16.865  37.787  23.257  1.00  0.00     0.019 A 
HETATM    7  C   LIG     1      16.542  37.236  22.013  1.00  0.00     0.008 A 
ENDROOT
BRANCH   5   8
HETATM    8  C   LIG     1      17.552  37.556  25.652  1.00  0.00     0.176 C 
HETATM    9  O   LIG     1      18.153  36.864  26.517  1.00  0.00    -0.646 OA
BRANCH   8  10
HETATM   10  O   LIG     1      17.243  38.882  25.960  1.00  0.00    -0.773 OA
HETATM   11  H   LIG     1      16.366  39.312  25.697  1.00  0.00     0.167 HD
ENDBRANCH   8  10
ENDBRANCH   5   8
TORSDOF 2
ENDMDL
MODEL 10
REMARK VINA RESULT:      -5.8      9.111     10.330
REMARK  2 active torsions:
REMARK  status: ('A' for Active; 'I' for Inactive)
REMARK    1  A    between atoms: C_5  and  C_6 
REMARK    2  A    between atoms: C_6  and  O_7 
ROOT
HETATM    1  C   LIG     1      13.119  28.736  14.195  1.00  0.00     0.048 C 
HETATM    2  C   LIG     1      13.987  29.907  14.544  1.00  0.00    -0.062 A 
HETATM    3  C   LIG     1      13.739  30.632  15.717  1.00  0.00     0.008 A 
HETATM    4  C   LIG     1      14.541  31.727  16.055  1.00  0.00     0.019 A 
HETATM    5  C   LIG     1      15.603  32.118  15.221  1.00  0.00     0.037 A 
HETATM    6  C   LIG     1      15.855  31.380  14.051  1.00  0.00     0.019 A 
HETATM    7  C   LIG     1      15.053  30.286  13.714  1.00  0.00     0.008 A 
ENDROOT
BRANCH   5   8
HETATM    8  C   LIG     1      16.466  33.274  15.568  1.00  0.00     0.176 C 
HETATM    9  O   LIG     1      17.695  33.242  15.289  1.00  0.00    -0.646 OA
BRANCH   8  10
HETATM   10  O   LIG     1      15.955  34.415  16.187  1.00  0.00    -0.773 OA
HETATM   11  H   LIG     1      16.296  34.751  17.078  1.00  0.00     0.167 HD
ENDBRANCH   8  10
ENDBRANCH   5   8
TORSDOF 2
ENDMDL
MODEL 11
REMARK VINA RESULT:      -5.5      2.576      3.925
REMARK  2 active torsions:
REMARK  status: ('A' for Active; 'I' for Inactive)
REMARK    1  A    between atoms: C_5  and  C_6 
REMARK    2  A    between atoms: C_6  and  O_7 
ROOT
HETATM    1  C   LIG     1      15.185  34.608  21.291  1.00  0.00     0.048 C 
HETATM    2  C   LIG     1      16.143  35.760  21.339  1.00  0.00    -0.062 A 
HETATM    3  C   LIG     1      15.962  36.777  22.286  1.00  0.00     0.008 A 
HETATM    4  C   LIG     1      16.847  37.858  22.342  1.00  0.00     0.019 A 
HETATM    5  C   LIG     1      17.928  37.943  21.446  1.00  0.00     0.037 A 
HETATM    6  C   LIG     1      18.112  36.913  20.505  1.00  0.00     0.019 A 
HETATM    7  C   LIG     1      17.225  35.834  20.450  1.00  0.00     0.008 A 
ENDROOT
BRANCH   5   8
HETATM    8  C   LIG     1      18.879  39.080  21.496  1.00  0.00     0.176 C 
HETATM    9  O   LIG     1      19.497  39.331  22.564  1.00  0.00    -0.646 OA
BRANCH   8  10
HETATM   10  O   LIG     1      19.127  39.881  20.380  1.00  0.00    -0.773 OA
HETATM   11  H   LIG     1      19.425  40.844  20.457  1.00  0.00     0.167 HD
ENDBRANCH   8  10
ENDBRANCH   5   8
TORSDOF 2
ENDMDL
MODEL 12
REMARK VINA RESULT:      -5.5      9.103     10.454
REMARK  2 active torsions:
REMARK  status: ('A' for Active; 'I' for Inactive)
REMARK    1  A    between atoms: C_5  and  C_6 
REMARK    2  A    between atoms: C_6  and  O_7 
ROOT
HETATM    1  C   LIG     1      13.373  30.474  16.334  1.00  0.00     0.048 C 
HETATM    2  C   LIG     1      14.453  31.194  15.584  1.00  0.00    -0.062 A 
HETATM    3  C   LIG     1      15.098  32.290  16.173  1.00  0.00     0.008 A 
HETATM    4  C   LIG     1      16.107  32.972  15.485  1.00  0.00     0.019 A 
HETATM    5  C   LIG     1      16.485  32.570  14.191  1.00  0.00     0.037 A 
HETATM    6  C   LIG     1      15.842  31.463  13.609  1.00  0.00     0.019 A 
HETATM    7  C   LIG     1      14.834  30.783  14.298  1.00  0.00     0.008 A 
ENDROOT
BRANCH   5   8
HETATM    8  C   LIG     1      17.556  33.279  13.450  1.00  0.00     0.176 C 
HETATM    9  O   LIG     1      17.961  34.400  13.857  1.00  0.00    -0.646 OA
BRANCH   8  10
HETATM   10  O   LIG     1      18.149  32.732  12.311  1.00  0.00    -0.773 OA
HETATM   11  H   LIG     1      18.011  33.117  11.386  1.00  0.00     0.167 HD
ENDBRANCH   8  10
ENDBRANCH   5   8
TORSDOF 2
ENDMDL
MODEL 13
REMARK VINA RESULT:      -5.4      8.400      9.626
REMARK  2 active torsions:
REMARK  status: ('A' for Active; 'I' for Inactive)
REMARK    1  A    between atoms: C_5  and  C_6 
REMARK    2  A    between atoms: C_6  and  O_7 
ROOT
HETATM    1  C   LIG     1      12.712  30.270  16.347  1.00  0.00     0.048 C 
HETATM    2  C   LIG     1      13.888  31.132  15.999  1.00  0.00    -0.062 A 
HETATM    3  C   LIG     1      14.679  30.813  14.888  1.00  0.00     0.008 A 
HETATM    4  C   LIG     1      15.781  31.608  14.552  1.00  0.00     0.019 A 
HETATM    5  C   LIG     1      16.110  32.735  15.326  1.00  0.00     0.037 A 
HETATM    6  C   LIG     1      15.305  33.057  16.434  1.00  0.00     0.019 A 
HETATM    7  C   LIG     1      14.205  32.260  16.769  1.00  0.00     0.008 A 
ENDROOT
BRANCH   5   8
HETATM    8  C   LIG     1      17.271  33.592  14.981  1.00  0.00     0.176 C 
HETATM    9  O   LIG     1      18.260  33.091  14.383  1.00  0.00    -0.646 OA
BRANCH   8  10
HETATM   10  O   LIG     1      17.297  34.953  15.285  1.00  0.00    -0.773 OA
HETATM   11  H   LIG     1      17.284  35.299  16.235  1.00  0.00     0.167 HD
ENDBRANCH   8  10
ENDBRANCH   5   8
TORSDOF 2
ENDMDL
MODEL 14
REMARK VINA RESULT:      -5.3      3.845      4.718
REMARK  2 active torsions:
REMARK  status: ('A' for Active; 'I' for Inactive)
REMARK    1  A    between atoms: C_5  and  C_6 
REMARK    2  A    between atoms: C_6  and  O_7 
ROOT
HETATM    1  C   LIG     1      16.871  38.093  23.592  1.00  0.00     0.048 C 
HETATM    2  C   LIG     1      16.441  36.932  22.747  1.00  0.00    -0.062 A 
HETATM    3  C   LIG     1      17.282  35.818  22.615  1.00  0.00     0.008 A 
HETATM    4  C   LIG     1      16.894  34.728  21.829  1.00  0.00     0.019 A 
HETATM    5  C   LIG     1      15.658  34.736  21.158  1.00  0.00     0.037 A 
HETATM    6  C   LIG     1      14.813  35.851  21.304  1.00  0.00     0.019 A 
HETATM    7  C   LIG     1      15.203  36.940  22.089  1.00  0.00     0.008 A 
ENDROOT
BRANCH   5   8
HETATM    8  C   LIG     1      15.229  33.586  20.325  1.00  0.00     0.176 C 
HETATM    9  O   LIG     1      15.713  33.435  19.172  1.00  0.00    -0.646 OA
BRANCH   8  10
HETATM   10  O   LIG     1      14.308  32.645  20.788  1.00  0.00    -0.773 OA
HETATM   11  H   LIG     1      14.134  32.492  21.772  1.00  0.00     0.167 HD
ENDBRANCH   8  10
ENDBRANCH   5   8
TORSDOF 2
ENDMDL
MODEL 15
REMARK VINA RESULT:      -5.3      7.714      8.669
REMARK  2 active torsions:
REMARK  status: ('A' for Active; 'I' for Inactive)
REMARK    1  A    between atoms: C_5  and  C_6 
REMARK    2  A    between atoms: C_6  and  O_7 
ROOT
HETATM    1  C   LIG     1      15.359  30.718  13.174  1.00  0.00     0.048 C 
HETATM    2  C   LIG     1      15.251  31.208  14.586  1.00  0.00    -0.062 A 
HETATM    3  C   LIG     1      14.263  30.684  15.431  1.00  0.00     0.008 A 
HETATM    4  C   LIG     1      14.150  31.133  16.751  1.00  0.00     0.019 A 
HETATM    5  C   LIG     1      15.022  32.118  17.247  1.00  0.00     0.037 A 
HETATM    6  C   LIG     1      16.019  32.632  16.399  1.00  0.00     0.019 A 
HETATM    7  C   LIG     1      16.130  32.183  15.079  1.00  0.00     0.008 A 
ENDROOT
BRANCH   5   8
HETATM    8  C   LIG     1      14.919  32.600  18.646  1.00  0.00     0.176 C 
HETATM    9  O   LIG     1      15.556  33.628  19.001  1.00  0.00    -0.646 OA
BRANCH   8  10
HETATM   10  O   LIG     1      14.119  31.955  19.590  1.00  0.00    -0.773 OA
HETATM   11  H   LIG     1      13.111  32.038  19.597  1.00  0.00     0.167 HD
ENDBRANCH   8  10
ENDBRANCH   5   8
TORSDOF 2
ENDMDL
MODEL 16
REMARK VINA RESULT:      -5.1      2.783      4.411
REMARK  2 active torsions:
REMARK  status: ('A' for Active; 'I' for Inactive)
REMARK    1  A    between atoms: C_5  and  C_6 
REMARK    2  A    between atoms: C_6  and  O_7 
ROOT
HETATM    1  C   LIG     1      17.553  34.822  26.342  1.00  0.00     0.048 C 
HETATM    2  C   LIG     1      17.647  35.833  25.239  1.00  0.00    -0.062 A 
HETATM    3  C   LIG     1      17.091  35.548  23.984  1.00  0.00     0.008 A 
HETATM    4  C   LIG     1      17.172  36.482  22.946  1.00  0.00     0.019 A 
HETATM    5  C   LIG     1      17.815  37.716  23.145  1.00  0.00     0.037 A 
HETATM    6  C   LIG     1      18.362  38.002  24.409  1.00  0.00     0.019 A 
HETATM    7  C   LIG     1      18.280  37.067  25.446  1.00  0.00     0.008 A 
ENDROOT
BRANCH   5   8
HETATM    8  C   LIG     1      17.905  38.720  22.056  1.00  0.00     0.176 C 
HETATM    9  O   LIG     1      17.816  38.348  20.855  1.00  0.00    -0.646 OA
BRANCH   8  10
HETATM   10  O   LIG     1      18.072  40.080  22.320  1.00  0.00    -0.773 OA
HETATM   11  H   LIG     1      18.454  40.422  23.191  1.00  0.00     0.167 HD
ENDBRANCH   8  10
ENDBRANCH   5   8
TORSDOF 2
ENDMDL
MODEL 17
REMARK VINA RESULT:      -5.0      7.105      8.251
REMARK  2 active torsions:
REMARK  status: ('A' for Active; 'I' for Inactive)
REMARK    1  A    between atoms: C_5  and  C_6 
REMARK    2  A    between atoms: C_6  and  O_7 
ROOT
HETATM    1  C   LIG     1      16.075  34.398  20.739  1.00  0.00     0.048 C 
HETATM    2  C   LIG     1      15.473  33.526  19.678  1.00  0.00    -0.062 A 
HETATM    3  C   LIG     1      15.336  34.012  18.372  1.00  0.00     0.008 A 
HETATM    4  C   LIG     1      14.775  33.209  17.372  1.00  0.00     0.019 A 
HETATM    5  C   LIG     1      14.339  31.905  17.666  1.00  0.00     0.037 A 
HETATM    6  C   LIG     1      14.490  31.418  18.977  1.00  0.00     0.019 A 
HETATM    7  C   LIG     1      15.049  32.222  19.974  1.00  0.00     0.008 A 
ENDROOT
BRANCH   5   8
HETATM    8  C   LIG     1      13.747  31.039  16.618  1.00  0.00     0.176 C 
HETATM    9  O   LIG     1      14.407  30.780  15.576  1.00  0.00    -0.646 OA
BRANCH   8  10
HETATM   10  O   LIG     1      12.475  30.482  16.754  1.00  0.00    -0.773 OA
HETATM   11  H   LIG     1      12.329  29.515  17.012  1.00  0.00     0.167 HD
ENDBRANCH   8  10
ENDBRANCH   5   8
TORSDOF 2
ENDMDL
MODEL 18
REMARK VINA RESULT:      -4.6      9.223     10.302
REMARK  2 active torsions:
REMARK  status: ('A' for Active; 'I' for Inactive)
REMARK    1  A    between atoms: C_5  and  C_6 
REMARK    2  A    between atoms: C_6  and  O_7 
ROOT
HETATM    1  C   LIG     1      15.112  28.484  12.979  1.00  0.00     0.048 C 
HETATM    2  C   LIG     1      14.818  29.475  14.065  1.00  0.00    -0.062 A 
HETATM    3  C   LIG     1      15.778  30.436  14.408  1.00  0.00     0.008 A 
HETATM    4  C   LIG     1      15.517  31.367  15.420  1.00  0.00     0.019 A 
HETATM    5  C   LIG     1      14.291  31.349  16.107  1.00  0.00     0.037 A 
HETATM    6  C   LIG     1      13.326  30.390  15.750  1.00  0.00     0.019 A 
HETATM    7  C   LIG     1      13.589  29.459  14.740  1.00  0.00     0.008 A 
ENDROOT
BRANCH   5   8
HETATM    8  C   LIG     1      13.996  32.332  17.178  1.00  0.00     0.176 C 
HETATM    9  O   LIG     1      14.027  31.970  18.385  1.00  0.00    -0.646 OA
BRANCH   8  10
HETATM   10  O   LIG     1      13.698  33.665  16.892  1.00  0.00    -0.773 OA
HETATM   11  H   LIG     1      14.042  34.433  17.453  1.00  0.00     0.167 HD
ENDBRANCH   8  10
ENDBRANCH   5   8
TORSDOF 2
ENDMDL
MODEL 19
REMARK VINA RESULT:      -3.9     19.138     20.563
REMARK  2 active torsions:
REMARK  status: ('A' for Active; 'I' for Inactive)
REMARK    1  A    between atoms: C_5  and  C_6 
REMARK    2  A    between atoms: C_6  and  O_7 
ROOT
HETATM    1  C   LIG     1      22.830  23.056  37.750  1.00  0.00     0.048 C 
HETATM    2  C   LIG     1      22.044  22.929  36.480  1.00  0.00    -0.062 A 
HETATM    3  C   LIG     1      22.468  23.605  35.328  1.00  0.00     0.008 A 
HETATM    4  C   LIG     1      21.744  23.496  34.136  1.00  0.00     0.019 A 
HETATM    5  C   LIG     1      20.578  22.711  34.079  1.00  0.00     0.037 A 
HETATM    6  C   LIG     1      20.163  22.026  35.235  1.00  0.00     0.019 A 
HETATM    7  C   LIG     1      20.888  22.136  36.426  1.00  0.00     0.008 A 
ENDROOT
BRANCH   5   8
HETATM    8  C   LIG     1      19.802  22.581  32.822  1.00  0.00     0.176 C 
HETATM    9  O   LIG     1      19.140  23.563  32.392  1.00  0.00    -0.646 OA
BRANCH   8  10
HETATM   10  O   LIG     1      19.791  21.398  32.083  1.00  0.00    -0.773 OA
HETATM   11  H   LIG     1      18.935  20.941  31.798  1.00  0.00     0.167 HD
ENDBRANCH   8  10
ENDBRANCH   5   8
TORSDOF 2
ENDMDL
