REMARK  2 active torsions:
REMARK  status: ('A' for Active; 'I' for Inactive)
REMARK    1  A    between atoms: C_5  and  C_6 
REMARK    2  A    between atoms: C_6  and  O_7 
ROOT
HETATM    1  C   LIG     1      -2.891  -0.039  -0.504  1.00  0.00     0.048 C 
HETATM    2  C   LIG     1      -1.413   0.046  -0.267  1.00  0.00    -0.062 A 
HETATM    3  C   LIG     1      -0.646  -1.126  -0.229  1.00  0.00     0.008 A 
HETATM    4  C   LIG     1       0.734  -1.062  -0.008  1.00  0.00     0.019 A 
HETATM    5  C   LIG     1       1.369   0.178   0.183  1.00  0.00     0.037 A 
HETATM    6  C   LIG     1       0.596   1.352   0.132  1.00  0.00     0.019 A 
HETATM    7  C   LIG     1      -0.783   1.286  -0.088  1.00  0.00     0.008 A 
ENDROOT
BRANCH   5   8
HETATM    8  C   LIG     1       2.832   0.264   0.413  1.00  0.00     0.176 C 
HETATM    9  O   LIG     1       3.440   1.341   0.172  1.00  0.00    -0.646 OA
BRANCH   8  10
HETATM   10  O   LIG     1       3.564  -0.816   0.908  1.00  0.00    -0.773 OA
HETATM   11  H   LIG     1       3.127  -1.673   1.220  1.00  0.00     0.167 HD
ENDBRANCH   8  10
ENDBRANCH   5   8
TORSDOF 2
