REMARK  2 active torsions:
REMARK  status: ('A' for Active; 'I' for Inactive)
REMARK    1  A    between atoms: C_2  and  C_3 
REMARK    2  A    between atoms: C_6  and  N_7 
ROOT
HETATM    1  C   LIG     1      -0.696   0.091  -0.390  1.00  0.00     0.009 A 
HETATM    2  C   LIG     1      -0.169   0.500   0.850  1.00  0.00     0.017 A 
HETATM    3  C   LIG     1       1.195   0.355   1.123  1.00  0.00     0.030 A 
HETATM    4  C   LIG     1       2.054  -0.191   0.162  1.00  0.00     0.025 A 
HETATM    5  C   LIG     1       1.540  -0.588  -1.079  1.00  0.00     0.030 A 
HETATM    6  C   LIG     1       0.177  -0.444  -1.355  1.00  0.00     0.017 A 
ENDROOT
BRANCH   1   7
HETATM    7  C   LIG     1      -2.138   0.245  -0.704  1.00  0.00     0.155 C 
HETATM    8  C   LIG     1      -3.197   0.235   0.358  1.00  0.00     0.096 C 
HETATM    9  O   LIG     1      -2.500   0.377  -1.904  1.00  0.00    -0.293 OA
ENDBRANCH   1   7
BRANCH   4  10
HETATM   10  N   LIG     1       3.449  -0.338   0.443  1.00  0.00    -0.399 N 
HETATM   11  H   LIG     1       4.098  -0.743  -0.268  1.00  0.00     0.156 HD
HETATM   12  H   LIG     1       3.842  -0.044   1.365  1.00  0.00     0.156 HD
ENDBRANCH   4  10
TORSDOF 2
