REMARK  6 active torsions:
REMARK  status: ('A' for Active; 'I' for Inactive)
REMARK    1  A    between atoms: C_3  and  O_4 
REMARK    2  A    between atoms: C_5  and  O_6 
REMARK    3  A    between atoms: C_7  and  O_8 
REMARK    4  A    between atoms: C_9  and  C_11 
REMARK    5  A    between atoms: C_9  and  O_10 
REMARK    6  A    between atoms: C_11  and  O_12 
ROOT
HETATM    1  O   LIG     1      -0.134  -0.144  -1.510  1.00  0.00    -0.349 OA
HETATM    2  C   LIG     1       0.942  -0.958  -1.061  1.00  0.00     0.206 C 
HETATM    3  C   LIG     1       1.604  -0.477   0.252  1.00  0.00     0.173 C 
HETATM    4  C   LIG     1       1.201   0.963   0.586  1.00  0.00     0.183 C 
HETATM    5  C   LIG     1      -0.341   1.112   0.607  1.00  0.00     0.213 C 
HETATM    6  C   LIG     1      -1.050   0.230  -0.487  1.00  0.00     0.212 C 
ENDROOT
BRANCH   6   7
HETATM    7  C   LIG     1      -1.726  -1.024   0.140  1.00  0.00     0.235 C 
BRANCH   7   8
HETATM    8  O   LIG     1      -2.275  -1.826  -0.870  1.00  0.00    -0.395 OA
HETATM    9  H   LIG     1      -2.688  -2.603  -0.412  1.00  0.00     0.209 HD
ENDBRANCH   7   8
ENDBRANCH   6   7
BRANCH   6  10
HETATM   10  O   LIG     1      -2.061   0.986  -1.115  1.00  0.00    -0.362 OA
HETATM   11  H   LIG     1      -2.732   1.244  -0.429  1.00  0.00     0.213 HD
ENDBRANCH   6  10
BRANCH   5  12
HETATM   12  O   LIG     1      -0.680   2.469   0.451  1.00  0.00    -0.387 OA
HETATM   13  H   LIG     1      -0.436   2.928   1.298  1.00  0.00     0.210 HD
ENDBRANCH   5  12
BRANCH   4  14
HETATM   14  O   LIG     1       1.814   1.881  -0.291  1.00  0.00    -0.390 OA
HETATM   15  H   LIG     1       1.416   1.768  -1.192  1.00  0.00     0.210 HD
ENDBRANCH   4  14
BRANCH   3  16
HETATM   16  O   LIG     1       3.003  -0.566   0.162  1.00  0.00    -0.391 OA
HETATM   17  H   LIG     1       3.229  -1.532   0.188  1.00  0.00     0.210 HD
ENDBRANCH   3  16
TORSDOF 6
