MODEL 1
REMARK VINA RESULT:      -5.0      0.000      0.000
REMARK  6 active torsions:
REMARK  status: ('A' for Active; 'I' for Inactive)
REMARK    1  A    between atoms: C_3  and  O_4 
REMARK    2  A    between atoms: C_5  and  O_6 
REMARK    3  A    between atoms: C_7  and  O_8 
REMARK    4  A    between atoms: C_9  and  C_11 
REMARK    5  A    between atoms: C_9  and  O_10 
REMARK    6  A    between atoms: C_11  and  O_12 
ROOT
HETATM    1  O   LIG     1      16.127  38.002  24.499  1.00  0.00    -0.349 OA
HETATM    2  C   LIG     1      17.243  38.289  25.332  1.00  0.00     0.206 C 
HETATM    3  C   LIG     1      18.297  37.159  25.403  1.00  0.00     0.173 C 
HETATM    4  C   LIG     1      17.739  35.840  24.859  1.00  0.00     0.183 C 
HETATM    5  C   LIG     1      17.167  36.032  23.432  1.00  0.00     0.213 C 
HETATM    6  C   LIG     1      16.468  37.430  23.242  1.00  0.00     0.212 C 
ENDROOT
BRANCH   6   7
HETATM    7  C   LIG     1      17.353  38.402  22.409  1.00  0.00     0.235 C 
BRANCH   7   8
HETATM    8  O   LIG     1      17.923  37.721  21.325  1.00  0.00    -0.395 OA
HETATM    9  H   LIG     1      18.811  37.404  21.634  1.00  0.00     0.209 HD
ENDBRANCH   7   8
ENDBRANCH   6   7
BRANCH   6  10
HETATM   10  O   LIG     1      15.257  37.256  22.542  1.00  0.00    -0.362 OA
HETATM   11  H   LIG     1      14.896  38.153  22.311  1.00  0.00     0.213 HD
ENDBRANCH   6  10
BRANCH   5  12
HETATM   12  O   LIG     1      16.273  34.984  23.143  1.00  0.00    -0.387 OA
HETATM   13  H   LIG     1      16.765  34.134  23.293  1.00  0.00     0.210 HD
ENDBRANCH   5  12
BRANCH   4  14
HETATM   14  O   LIG     1      16.792  35.283  25.742  1.00  0.00    -0.390 OA
HETATM   15  H   LIG     1      17.229  35.139  26.621  1.00  0.00     0.210 HD
ENDBRANCH   4  14
BRANCH   3  16
HETATM   16  O   LIG     1      18.736  36.974  26.725  1.00  0.00    -0.391 OA
HETATM   17  H   LIG     1      19.213  37.805  26.985  1.00  0.00     0.210 HD
ENDBRANCH   3  16
TORSDOF 6
ENDMDL
MODEL 2
REMARK VINA RESULT:      -4.7      1.705      3.085
REMARK  6 active torsions:
REMARK  status: ('A' for Active; 'I' for Inactive)
REMARK    1  A    between atoms: C_3  and  O_4 
REMARK    2  A    between atoms: C_5  and  O_6 
REMARK    3  A    between atoms: C_7  and  O_8 
REMARK    4  A    between atoms: C_9  and  C_11 
REMARK    5  A    between atoms: C_9  and  O_10 
REMARK    6  A    between atoms: C_11  and  O_12 
ROOT
HETATM    1  O   LIG     1      17.385  36.025  23.128  1.00  0.00    -0.349 OA
HETATM    2  C   LIG     1      16.893  36.547  24.356  1.00  0.00     0.206 C 
HETATM    3  C   LIG     1      16.793  38.090  24.401  1.00  0.00     0.173 C 
HETATM    4  C   LIG     1      17.583  38.735  23.258  1.00  0.00     0.183 C 
HETATM    5  C   LIG     1      17.148  38.150  21.890  1.00  0.00     0.213 C 
HETATM    6  C   LIG     1      16.806  36.616  21.969  1.00  0.00     0.212 C 
ENDROOT
BRANCH   6   7
HETATM    7  C   LIG     1      15.270  36.370  21.927  1.00  0.00     0.235 C 
BRANCH   7   8
HETATM    8  O   LIG     1      14.937  35.622  20.789  1.00  0.00    -0.395 OA
HETATM    9  H   LIG     1      14.892  36.268  20.038  1.00  0.00     0.209 HD
ENDBRANCH   7   8
ENDBRANCH   6   7
BRANCH   6  10
HETATM   10  O   LIG     1      17.371  35.953  20.860  1.00  0.00    -0.362 OA
HETATM   11  H   LIG     1      17.312  36.554  20.071  1.00  0.00     0.213 HD
ENDBRANCH   6  10
BRANCH   5  12
HETATM   12  O   LIG     1      18.158  38.389  20.940  1.00  0.00    -0.387 OA
HETATM   13  H   LIG     1      18.306  37.535  20.453  1.00  0.00     0.210 HD
ENDBRANCH   5  12
BRANCH   4  14
HETATM   14  O   LIG     1      18.972  38.622  23.470  1.00  0.00    -0.390 OA
HETATM   15  H   LIG     1      19.369  38.143  22.698  1.00  0.00     0.210 HD
ENDBRANCH   4  14
BRANCH   3  16
HETATM   16  O   LIG     1      17.261  38.580  25.632  1.00  0.00    -0.391 OA
HETATM   17  H   LIG     1      16.756  39.414  25.816  1.00  0.00     0.210 HD
ENDBRANCH   3  16
TORSDOF 6
ENDMDL
MODEL 3
REMARK VINA RESULT:      -4.6      8.576     10.234
REMARK  6 active torsions:
REMARK  status: ('A' for Active; 'I' for Inactive)
REMARK    1  A    between atoms: C_3  and  O_4 
REMARK    2  A    between atoms: C_5  and  O_6 
REMARK    3  A    between atoms: C_7  and  O_8 
REMARK    4  A    between atoms: C_9  and  C_11 
REMARK    5  A    between atoms: C_9  and  O_10 
REMARK    6  A    between atoms: C_11  and  O_12 
ROOT
HETATM    1  O   LIG     1      16.735  32.393  16.405  1.00  0.00    -0.349 OA
HETATM    2  C   LIG     1      17.136  32.880  15.130  1.00  0.00     0.206 C 
HETATM    3  C   LIG     1      16.198  32.478  13.968  1.00  0.00     0.173 C 
HETATM    4  C   LIG     1      15.251  31.346  14.380  1.00  0.00     0.183 C 
HETATM    5  C   LIG     1      14.476  31.719  15.669  1.00  0.00     0.213 C 
HETATM    6  C   LIG     1      15.348  32.550  16.681  1.00  0.00     0.212 C 
ENDROOT
BRANCH   6   7
HETATM    7  C   LIG     1      14.947  34.054  16.679  1.00  0.00     0.235 C 
BRANCH   7   8
HETATM    8  O   LIG     1      15.367  34.662  17.870  1.00  0.00    -0.395 OA
HETATM    9  H   LIG     1      14.821  35.485  17.968  1.00  0.00     0.209 HD
ENDBRANCH   7   8
ENDBRANCH   6   7
BRANCH   6  10
HETATM   10  O   LIG     1      15.144  32.060  17.987  1.00  0.00    -0.362 OA
HETATM   11  H   LIG     1      16.006  32.111  18.480  1.00  0.00     0.213 HD
ENDBRANCH   6  10
BRANCH   5  12
HETATM   12  O   LIG     1      13.989  30.546  16.275  1.00  0.00    -0.387 OA
HETATM   13  H   LIG     1      13.932  29.854  15.564  1.00  0.00     0.210 HD
ENDBRANCH   5  12
BRANCH   4  14
HETATM   14  O   LIG     1      15.942  30.124  14.507  1.00  0.00    -0.390 OA
HETATM   15  H   LIG     1      16.181  29.996  15.461  1.00  0.00     0.210 HD
ENDBRANCH   4  14
BRANCH   3  16
HETATM   16  O   LIG     1      16.944  32.083  12.845  1.00  0.00    -0.391 OA
HETATM   17  H   LIG     1      17.893  32.043  13.133  1.00  0.00     0.210 HD
ENDBRANCH   3  16
TORSDOF 6
ENDMDL
MODEL 4
REMARK VINA RESULT:      -4.5      1.268      3.689
REMARK  6 active torsions:
REMARK  status: ('A' for Active; 'I' for Inactive)
REMARK    1  A    between atoms: C_3  and  O_4 
REMARK    2  A    between atoms: C_5  and  O_6 
REMARK    3  A    between atoms: C_7  and  O_8 
REMARK    4  A    between atoms: C_9  and  C_11 
REMARK    5  A    between atoms: C_9  and  O_10 
REMARK    6  A    between atoms: C_11  and  O_12 
ROOT
HETATM    1  O   LIG     1      16.644  36.685  25.011  1.00  0.00    -0.349 OA
HETATM    2  C   LIG     1      16.977  35.548  24.225  1.00  0.00     0.206 C 
HETATM    3  C   LIG     1      17.226  35.855  22.729  1.00  0.00     0.173 C 
HETATM    4  C   LIG     1      16.706  37.246  22.350  1.00  0.00     0.183 C 
HETATM    5  C   LIG     1      17.298  38.328  23.287  1.00  0.00     0.213 C 
HETATM    6  C   LIG     1      17.463  37.824  24.768  1.00  0.00     0.212 C 
ENDROOT
BRANCH   6   7
HETATM    7  C   LIG     1      18.952  37.520  25.106  1.00  0.00     0.235 C 
BRANCH   7   8
HETATM    8  O   LIG     1      19.080  37.216  26.469  1.00  0.00    -0.395 OA
HETATM    9  H   LIG     1      19.346  36.261  26.515  1.00  0.00     0.209 HD
ENDBRANCH   7   8
ENDBRANCH   6   7
BRANCH   6  10
HETATM   10  O   LIG     1      17.024  38.827  25.657  1.00  0.00    -0.362 OA
HETATM   11  H   LIG     1      16.650  39.577  25.123  1.00  0.00     0.213 HD
ENDBRANCH   6  10
BRANCH   5  12
HETATM   12  O   LIG     1      16.489  39.479  23.238  1.00  0.00    -0.387 OA
HETATM   13  H   LIG     1      16.744  39.978  22.418  1.00  0.00     0.210 HD
ENDBRANCH   5  12
BRANCH   4  14
HETATM   14  O   LIG     1      15.297  37.274  22.324  1.00  0.00    -0.390 OA
HETATM   15  H   LIG     1      14.973  36.419  21.943  1.00  0.00     0.210 HD
ENDBRANCH   4  14
BRANCH   3  16
HETATM   16  O   LIG     1      16.614  34.886  21.917  1.00  0.00    -0.391 OA
HETATM   17  H   LIG     1      17.253  34.683  21.185  1.00  0.00     0.210 HD
ENDBRANCH   3  16
TORSDOF 6
ENDMDL
MODEL 5
REMARK VINA RESULT:      -4.5      8.304     10.192
REMARK  6 active torsions:
REMARK  status: ('A' for Active; 'I' for Inactive)
REMARK    1  A    between atoms: C_3  and  O_4 
REMARK    2  A    between atoms: C_5  and  O_6 
REMARK    3  A    between atoms: C_7  and  O_8 
REMARK    4  A    between atoms: C_9  and  C_11 
REMARK    5  A    between atoms: C_9  and  O_10 
REMARK    6  A    between atoms: C_11  and  O_12 
ROOT
HETATM    1  O   LIG     1      14.014  32.388  15.947  1.00  0.00    -0.349 OA
HETATM    2  C   LIG     1      14.367  31.084  15.504  1.00  0.00     0.206 C 
HETATM    3  C   LIG     1      15.830  30.947  15.019  1.00  0.00     0.173 C 
HETATM    4  C   LIG     1      16.470  32.319  14.779  1.00  0.00     0.183 C 
HETATM    5  C   LIG     1      16.340  33.214  16.037  1.00  0.00     0.213 C 
HETATM    6  C   LIG     1      14.979  32.998  16.797  1.00  0.00     0.212 C 
ENDROOT
BRANCH   6   7
HETATM    7  C   LIG     1      15.177  32.168  18.099  1.00  0.00     0.235 C 
BRANCH   7   8
HETATM    8  O   LIG     1      13.941  31.958  18.725  1.00  0.00    -0.395 OA
HETATM    9  H   LIG     1      13.615  32.854  18.999  1.00  0.00     0.209 HD
ENDBRANCH   7   8
ENDBRANCH   6   7
BRANCH   6  10
HETATM   10  O   LIG     1      14.447  34.249  17.170  1.00  0.00    -0.362 OA
HETATM   11  H   LIG     1      14.521  34.340  18.157  1.00  0.00     0.213 HD
ENDBRANCH   6  10
BRANCH   5  12
HETATM   12  O   LIG     1      16.496  34.563  15.666  1.00  0.00    -0.387 OA
HETATM   13  H   LIG     1      17.182  34.952  16.271  1.00  0.00     0.210 HD
ENDBRANCH   5  12
BRANCH   4  14
HETATM   14  O   LIG     1      15.938  32.935  13.628  1.00  0.00    -0.390 OA
HETATM   15  H   LIG     1      15.368  32.277  13.154  1.00  0.00     0.210 HD
ENDBRANCH   4  14
BRANCH   3  16
HETATM   16  O   LIG     1      15.892  30.186  13.840  1.00  0.00    -0.391 OA
HETATM   17  H   LIG     1      15.698  29.247  14.098  1.00  0.00     0.210 HD
ENDBRANCH   3  16
TORSDOF 6
ENDMDL
MODEL 6
REMARK VINA RESULT:      -4.4      2.004      3.542
REMARK  6 active torsions:
REMARK  status: ('A' for Active; 'I' for Inactive)
REMARK    1  A    between atoms: C_3  and  O_4 
REMARK    2  A    between atoms: C_5  and  O_6 
REMARK    3  A    between atoms: C_7  and  O_8 
REMARK    4  A    between atoms: C_9  and  C_11 
REMARK    5  A    between atoms: C_9  and  O_10 
REMARK    6  A    between atoms: C_11  and  O_12 
ROOT
HETATM    1  O   LIG     1      16.778  37.148  20.984  1.00  0.00    -0.349 OA
HETATM    2  C   LIG     1      18.125  37.575  21.146  1.00  0.00     0.206 C 
HETATM    3  C   LIG     1      18.422  38.256  22.503  1.00  0.00     0.173 C 
HETATM    4  C   LIG     1      17.130  38.648  23.226  1.00  0.00     0.183 C 
HETATM    5  C   LIG     1      16.185  37.428  23.366  1.00  0.00     0.213 C 
HETATM    6  C   LIG     1      16.240  36.473  22.116  1.00  0.00     0.212 C 
ENDROOT
BRANCH   6   7
HETATM    7  C   LIG     1      17.042  35.175  22.423  1.00  0.00     0.235 C 
BRANCH   7   8
HETATM    8  O   LIG     1      17.178  35.015  23.809  1.00  0.00    -0.395 OA
HETATM    9  H   LIG     1      16.408  34.461  24.100  1.00  0.00     0.209 HD
ENDBRANCH   7   8
ENDBRANCH   6   7
BRANCH   6  10
HETATM   10  O   LIG     1      14.930  36.088  21.763  1.00  0.00    -0.362 OA
HETATM   11  H   LIG     1      14.779  35.159  22.083  1.00  0.00     0.213 HD
ENDBRANCH   6  10
BRANCH   5  12
HETATM   12  O   LIG     1      14.871  37.880  23.592  1.00  0.00    -0.387 OA
HETATM   13  H   LIG     1      14.335  37.620  22.797  1.00  0.00     0.210 HD
ENDBRANCH   5  12
BRANCH   4  14
HETATM   14  O   LIG     1      16.502  39.740  22.593  1.00  0.00    -0.390 OA
HETATM   15  H   LIG     1      15.959  40.224  23.266  1.00  0.00     0.210 HD
ENDBRANCH   4  14
BRANCH   3  16
HETATM   16  O   LIG     1      19.224  39.394  22.320  1.00  0.00    -0.391 OA
HETATM   17  H   LIG     1      19.993  39.303  22.941  1.00  0.00     0.210 HD
ENDBRANCH   3  16
TORSDOF 6
ENDMDL
MODEL 7
REMARK VINA RESULT:      -4.4      9.281     10.936
REMARK  6 active torsions:
REMARK  status: ('A' for Active; 'I' for Inactive)
REMARK    1  A    between atoms: C_3  and  O_4 
REMARK    2  A    between atoms: C_5  and  O_6 
REMARK    3  A    between atoms: C_7  and  O_8 
REMARK    4  A    between atoms: C_9  and  C_11 
REMARK    5  A    between atoms: C_9  and  O_10 
REMARK    6  A    between atoms: C_11  and  O_12 
ROOT
HETATM    1  O   LIG     1      16.125  30.450  15.012  1.00  0.00    -0.349 OA
HETATM    2  C   LIG     1      14.862  29.961  14.578  1.00  0.00     0.206 C 
HETATM    3  C   LIG     1      13.649  30.768  15.100  1.00  0.00     0.173 C 
HETATM    4  C   LIG     1      14.048  31.689  16.257  1.00  0.00     0.183 C 
HETATM    5  C   LIG     1      15.237  32.596  15.854  1.00  0.00     0.213 C 
HETATM    6  C   LIG     1      16.268  31.863  14.917  1.00  0.00     0.212 C 
ENDROOT
BRANCH   6   7
HETATM    7  C   LIG     1      16.136  32.338  13.441  1.00  0.00     0.235 C 
BRANCH   7   8
HETATM    8  O   LIG     1      17.403  32.403  12.845  1.00  0.00    -0.395 OA
HETATM    9  H   LIG     1      17.484  31.592  12.279  1.00  0.00     0.209 HD
ENDBRANCH   7   8
ENDBRANCH   6   7
BRANCH   6  10
HETATM   10  O   LIG     1      17.579  32.159  15.341  1.00  0.00    -0.362 OA
HETATM   11  H   LIG     1      17.580  33.064  15.751  1.00  0.00     0.213 HD
ENDBRANCH   6  10
BRANCH   5  12
HETATM   12  O   LIG     1      15.872  33.075  17.016  1.00  0.00    -0.387 OA
HETATM   13  H   LIG     1      15.443  32.621  17.789  1.00  0.00     0.210 HD
ENDBRANCH   5  12
BRANCH   4  14
HETATM   14  O   LIG     1      14.312  30.951  17.429  1.00  0.00    -0.390 OA
HETATM   15  H   LIG     1      14.902  31.492  18.014  1.00  0.00     0.210 HD
ENDBRANCH   4  14
BRANCH   3  16
HETATM   16  O   LIG     1      12.623  29.904  15.517  1.00  0.00    -0.391 OA
HETATM   17  H   LIG     1      12.985  28.982  15.456  1.00  0.00     0.210 HD
ENDBRANCH   3  16
TORSDOF 6
ENDMDL
MODEL 8
REMARK VINA RESULT:      -4.3      2.195      4.279
REMARK  6 active torsions:
REMARK  status: ('A' for Active; 'I' for Inactive)
REMARK    1  A    between atoms: C_3  and  O_4 
REMARK    2  A    between atoms: C_5  and  O_6 
REMARK    3  A    between atoms: C_7  and  O_8 
REMARK    4  A    between atoms: C_9  and  C_11 
REMARK    5  A    between atoms: C_9  and  O_10 
REMARK    6  A    between atoms: C_11  and  O_12 
ROOT
HETATM    1  O   LIG     1      15.484  37.219  21.698  1.00  0.00    -0.349 OA
HETATM    2  C   LIG     1      14.695  36.103  22.088  1.00  0.00     0.206 C 
HETATM    3  C   LIG     1      15.318  34.728  21.749  1.00  0.00     0.173 C 
HETATM    4  C   LIG     1      16.468  34.868  20.747  1.00  0.00     0.183 C 
HETATM    5  C   LIG     1      17.518  35.889  21.254  1.00  0.00     0.213 C 
HETATM    6  C   LIG     1      16.865  37.099  22.020  1.00  0.00     0.212 C 
ENDROOT
BRANCH   6   7
HETATM    7  C   LIG     1      17.069  36.978  23.558  1.00  0.00     0.235 C 
BRANCH   7   8
HETATM    8  O   LIG     1      16.510  38.090  24.203  1.00  0.00    -0.395 OA
HETATM    9  H   LIG     1      17.197  38.412  24.843  1.00  0.00     0.209 HD
ENDBRANCH   7   8
ENDBRANCH   6   7
BRANCH   6  10
HETATM   10  O   LIG     1      17.477  38.300  21.606  1.00  0.00    -0.362 OA
HETATM   11  H   LIG     1      17.645  38.860  22.409  1.00  0.00     0.213 HD
ENDBRANCH   6  10
BRANCH   5  12
HETATM   12  O   LIG     1      18.288  36.343  20.167  1.00  0.00    -0.387 OA
HETATM   13  H   LIG     1      18.515  37.293  20.349  1.00  0.00     0.210 HD
ENDBRANCH   5  12
BRANCH   4  14
HETATM   14  O   LIG     1      15.989  35.189  19.461  1.00  0.00    -0.390 OA
HETATM   15  H   LIG     1      15.928  34.353  18.932  1.00  0.00     0.210 HD
ENDBRANCH   4  14
BRANCH   3  16
HETATM   16  O   LIG     1      14.344  33.858  21.231  1.00  0.00    -0.391 OA
HETATM   17  H   LIG     1      14.183  34.138  20.293  1.00  0.00     0.210 HD
ENDBRANCH   3  16
TORSDOF 6
ENDMDL
MODEL 9
REMARK VINA RESULT:      -4.2      1.967      4.257
REMARK  6 active torsions:
REMARK  status: ('A' for Active; 'I' for Inactive)
REMARK    1  A    between atoms: C_3  and  O_4 
REMARK    2  A    between atoms: C_5  and  O_6 
REMARK    3  A    between atoms: C_7  and  O_8 
REMARK    4  A    between atoms: C_9  and  C_11 
REMARK    5  A    between atoms: C_9  and  O_10 
REMARK    6  A    between atoms: C_11  and  O_12 
ROOT
HETATM    1  O   LIG     1      15.919  38.139  22.399  1.00  0.00    -0.349 OA
HETATM    2  C   LIG     1      15.959  36.779  21.984  1.00  0.00     0.206 C 
HETATM    3  C   LIG     1      17.331  36.315  21.441  1.00  0.00     0.173 C 
HETATM    4  C   LIG     1      18.241  37.508  21.129  1.00  0.00     0.183 C 
HETATM    5  C   LIG     1      18.371  38.438  22.361  1.00  0.00     0.213 C 
HETATM    6  C   LIG     1      17.035  38.542  23.186  1.00  0.00     0.212 C 
ENDROOT
BRANCH   6   7
HETATM    7  C   LIG     1      17.112  37.718  24.505  1.00  0.00     0.235 C 
BRANCH   7   8
HETATM    8  O   LIG     1      17.240  38.582  25.601  1.00  0.00    -0.395 OA
HETATM    9  H   LIG     1      16.320  38.734  25.942  1.00  0.00     0.209 HD
ENDBRANCH   7   8
ENDBRANCH   6   7
BRANCH   6  10
HETATM   10  O   LIG     1      16.806  39.887  23.541  1.00  0.00    -0.362 OA
HETATM   11  H   LIG     1      15.849  40.097  23.376  1.00  0.00     0.213 HD
ENDBRANCH   6  10
BRANCH   5  12
HETATM   12  O   LIG     1      18.798  39.712  21.940  1.00  0.00    -0.387 OA
HETATM   13  H   LIG     1      19.750  39.803  22.212  1.00  0.00     0.210 HD
ENDBRANCH   5  12
BRANCH   4  14
HETATM   14  O   LIG     1      17.799  38.200  19.982  1.00  0.00    -0.390 OA
HETATM   15  H   LIG     1      18.093  37.697  19.180  1.00  0.00     0.210 HD
ENDBRANCH   4  14
BRANCH   3  16
HETATM   16  O   LIG     1      17.167  35.533  20.286  1.00  0.00    -0.391 OA
HETATM   17  H   LIG     1      17.480  36.084  19.522  1.00  0.00     0.210 HD
ENDBRANCH   3  16
TORSDOF 6
ENDMDL
MODEL 10
REMARK VINA RESULT:      -4.1     10.570     12.592
REMARK  6 active torsions:
REMARK  status: ('A' for Active; 'I' for Inactive)
REMARK    1  A    between atoms: C_3  and  O_4 
REMARK    2  A    between atoms: C_5  and  O_6 
REMARK    3  A    between atoms: C_7  and  O_8 
REMARK    4  A    between atoms: C_9  and  C_11 
REMARK    5  A    between atoms: C_9  and  O_10 
REMARK    6  A    between atoms: C_11  and  O_12 
ROOT
HETATM    1  O   LIG     1      18.334  32.608  12.319  1.00  0.00    -0.349 OA
HETATM    2  C   LIG     1      19.713  32.947  12.243  1.00  0.00     0.206 C 
HETATM    3  C   LIG     1      19.990  34.421  11.862  1.00  0.00     0.173 C 
HETATM    4  C   LIG     1      18.737  35.096  11.294  1.00  0.00     0.183 C 
HETATM    5  C   LIG     1      17.542  34.948  12.270  1.00  0.00     0.213 C 
HETATM    6  C   LIG     1      17.535  33.560  13.013  1.00  0.00     0.212 C 
ENDROOT
BRANCH   6   7
HETATM    7  C   LIG     1      17.998  33.701  14.492  1.00  0.00     0.235 C 
BRANCH   7   8
HETATM    8  O   LIG     1      17.203  34.648  15.153  1.00  0.00    -0.395 OA
HETATM    9  H   LIG     1      16.665  34.142  15.815  1.00  0.00     0.209 HD
ENDBRANCH   7   8
ENDBRANCH   6   7
BRANCH   6  10
HETATM   10  O   LIG     1      16.224  33.043  13.027  1.00  0.00    -0.362 OA
HETATM   11  H   LIG     1      15.595  33.789  13.216  1.00  0.00     0.213 HD
ENDBRANCH   6  10
BRANCH   5  12
HETATM   12  O   LIG     1      16.339  35.143  11.566  1.00  0.00    -0.387 OA
HETATM   13  H   LIG     1      15.780  34.336  11.717  1.00  0.00     0.210 HD
ENDBRANCH   5  12
BRANCH   4  14
HETATM   14  O   LIG     1      18.436  34.612  10.005  1.00  0.00    -0.390 OA
HETATM   15  H   LIG     1      18.776  33.684   9.930  1.00  0.00     0.210 HD
ENDBRANCH   4  14
BRANCH   3  16
HETATM   16  O   LIG     1      21.034  34.501  10.925  1.00  0.00    -0.391 OA
HETATM   17  H   LIG     1      21.528  33.642  10.975  1.00  0.00     0.210 HD
ENDBRANCH   3  16
TORSDOF 6
ENDMDL
MODEL 11
REMARK VINA RESULT:      -4.1      1.670      2.678
REMARK  6 active torsions:
REMARK  status: ('A' for Active; 'I' for Inactive)
REMARK    1  A    between atoms: C_3  and  O_4 
REMARK    2  A    between atoms: C_5  and  O_6 
REMARK    3  A    between atoms: C_7  and  O_8 
REMARK    4  A    between atoms: C_9  and  C_11 
REMARK    5  A    between atoms: C_9  and  O_10 
REMARK    6  A    between atoms: C_11  and  O_12 
ROOT
HETATM    1  O   LIG     1      15.257  36.851  22.335  1.00  0.00    -0.349 OA
HETATM    2  C   LIG     1      15.733  38.191  22.289  1.00  0.00     0.206 C 
HETATM    3  C   LIG     1      17.033  38.436  23.089  1.00  0.00     0.173 C 
HETATM    4  C   LIG     1      17.325  37.279  24.050  1.00  0.00     0.183 C 
HETATM    5  C   LIG     1      17.337  35.926  23.295  1.00  0.00     0.213 C 
HETATM    6  C   LIG     1      16.267  35.866  22.142  1.00  0.00     0.212 C 
ENDROOT
BRANCH   6   7
HETATM    7  C   LIG     1      16.927  36.013  20.741  1.00  0.00     0.235 C 
BRANCH   7   8
HETATM    8  O   LIG     1      16.267  35.195  19.814  1.00  0.00    -0.395 OA
HETATM    9  H   LIG     1      16.194  35.726  18.979  1.00  0.00     0.209 HD
ENDBRANCH   7   8
ENDBRANCH   6   7
BRANCH   6  10
HETATM   10  O   LIG     1      15.614  34.617  22.174  1.00  0.00    -0.362 OA
HETATM   11  H   LIG     1      15.026  34.550  21.376  1.00  0.00     0.213 HD
ENDBRANCH   6  10
BRANCH   5  12
HETATM   12  O   LIG     1      17.142  34.878  24.213  1.00  0.00    -0.387 OA
HETATM   13  H   LIG     1      17.864  34.949  24.892  1.00  0.00     0.210 HD
ENDBRANCH   5  12
BRANCH   4  14
HETATM   14  O   LIG     1      16.424  37.277  25.135  1.00  0.00    -0.390 OA
HETATM   15  H   LIG     1      16.328  38.206  25.465  1.00  0.00     0.210 HD
ENDBRANCH   4  14
BRANCH   3  16
HETATM   16  O   LIG     1      16.950  39.639  23.811  1.00  0.00    -0.391 OA
HETATM   17  H   LIG     1      16.076  39.628  24.282  1.00  0.00     0.210 HD
ENDBRANCH   3  16
TORSDOF 6
ENDMDL
MODEL 12
REMARK VINA RESULT:      -4.1      3.362      5.372
REMARK  6 active torsions:
REMARK  status: ('A' for Active; 'I' for Inactive)
REMARK    1  A    between atoms: C_3  and  O_4 
REMARK    2  A    between atoms: C_5  and  O_6 
REMARK    3  A    between atoms: C_7  and  O_8 
REMARK    4  A    between atoms: C_9  and  C_11 
REMARK    5  A    between atoms: C_9  and  O_10 
REMARK    6  A    between atoms: C_11  and  O_12 
ROOT
HETATM    1  O   LIG     1      19.920  37.520  19.692  1.00  0.00    -0.349 OA
HETATM    2  C   LIG     1      18.927  36.502  19.672  1.00  0.00     0.206 C 
HETATM    3  C   LIG     1      17.604  36.886  20.377  1.00  0.00     0.173 C 
HETATM    4  C   LIG     1      17.779  38.129  21.255  1.00  0.00     0.183 C 
HETATM    5  C   LIG     1      18.379  39.300  20.437  1.00  0.00     0.213 C 
HETATM    6  C   LIG     1      19.433  38.818  19.372  1.00  0.00     0.212 C 
ENDROOT
BRANCH   6   7
HETATM    7  C   LIG     1      18.847  38.854  17.931  1.00  0.00     0.235 C 
BRANCH   7   8
HETATM    8  O   LIG     1      18.376  40.141  17.638  1.00  0.00    -0.395 OA
HETATM    9  H   LIG     1      18.042  40.108  16.705  1.00  0.00     0.209 HD
ENDBRANCH   7   8
ENDBRANCH   6   7
BRANCH   6  10
HETATM   10  O   LIG     1      20.550  39.679  19.396  1.00  0.00    -0.362 OA
HETATM   11  H   LIG     1      21.371  39.130  19.289  1.00  0.00     0.213 HD
ENDBRANCH   6  10
BRANCH   5  12
HETATM   12  O   LIG     1      18.951  40.238  21.317  1.00  0.00    -0.387 OA
HETATM   13  H   LIG     1      19.640  40.736  20.802  1.00  0.00     0.210 HD
ENDBRANCH   5  12
BRANCH   4  14
HETATM   14  O   LIG     1      18.538  37.838  22.406  1.00  0.00    -0.390 OA
HETATM   15  H   LIG     1      19.093  37.037  22.222  1.00  0.00     0.210 HD
ENDBRANCH   4  14
BRANCH   3  16
HETATM   16  O   LIG     1      17.134  35.818  21.160  1.00  0.00    -0.391 OA
HETATM   17  H   LIG     1      16.156  35.952  21.265  1.00  0.00     0.210 HD
ENDBRANCH   3  16
TORSDOF 6
ENDMDL
MODEL 13
REMARK VINA RESULT:      -4.1      1.772      3.678
REMARK  6 active torsions:
REMARK  status: ('A' for Active; 'I' for Inactive)
REMARK    1  A    between atoms: C_3  and  O_4 
REMARK    2  A    between atoms: C_5  and  O_6 
REMARK    3  A    between atoms: C_7  and  O_8 
REMARK    4  A    between atoms: C_9  and  C_11 
REMARK    5  A    between atoms: C_9  and  O_10 
REMARK    6  A    between atoms: C_11  and  O_12 
ROOT
HETATM    1  O   LIG     1      18.341  37.541  21.816  1.00  0.00    -0.349 OA
HETATM    2  C   LIG     1      17.635  37.067  20.676  1.00  0.00     0.206 C 
HETATM    3  C   LIG     1      16.457  36.119  21.000  1.00  0.00     0.173 C 
HETATM    4  C   LIG     1      16.532  35.608  22.443  1.00  0.00     0.183 C 
HETATM    5  C   LIG     1      16.638  36.789  23.440  1.00  0.00     0.213 C 
HETATM    6  C   LIG     1      17.504  37.978  22.881  1.00  0.00     0.212 C 
ENDROOT
BRANCH   6   7
HETATM    7  C   LIG     1      16.612  39.173  22.433  1.00  0.00     0.235 C 
BRANCH   7   8
HETATM    8  O   LIG     1      15.277  38.930  22.784  1.00  0.00    -0.395 OA
HETATM    9  H   LIG     1      15.298  38.530  23.691  1.00  0.00     0.209 HD
ENDBRANCH   7   8
ENDBRANCH   6   7
BRANCH   6  10
HETATM   10  O   LIG     1      18.364  38.449  23.895  1.00  0.00    -0.362 OA
HETATM   11  H   LIG     1      18.781  37.666  24.341  1.00  0.00     0.213 HD
ENDBRANCH   6  10
BRANCH   5  12
HETATM   12  O   LIG     1      17.161  36.322  24.661  1.00  0.00    -0.387 OA
HETATM   13  H   LIG     1      17.229  37.107  25.266  1.00  0.00     0.210 HD
ENDBRANCH   5  12
BRANCH   4  14
HETATM   14  O   LIG     1      17.581  34.679  22.601  1.00  0.00    -0.390 OA
HETATM   15  H   LIG     1      17.641  34.130  21.778  1.00  0.00     0.210 HD
ENDBRANCH   4  14
BRANCH   3  16
HETATM   16  O   LIG     1      16.441  35.029  20.114  1.00  0.00    -0.391 OA
HETATM   17  H   LIG     1      15.848  34.343  20.518  1.00  0.00     0.210 HD
ENDBRANCH   3  16
TORSDOF 6
ENDMDL
MODEL 14
REMARK VINA RESULT:      -4.0      8.093      9.734
REMARK  6 active torsions:
REMARK  status: ('A' for Active; 'I' for Inactive)
REMARK    1  A    between atoms: C_3  and  O_4 
REMARK    2  A    between atoms: C_5  and  O_6 
REMARK    3  A    between atoms: C_7  and  O_8 
REMARK    4  A    between atoms: C_9  and  C_11 
REMARK    5  A    between atoms: C_9  and  O_10 
REMARK    6  A    between atoms: C_11  and  O_12 
ROOT
HETATM    1  O   LIG     1      16.354  31.598  16.149  1.00  0.00    -0.349 OA
HETATM    2  C   LIG     1      14.986  31.255  16.334  1.00  0.00     0.206 C 
HETATM    3  C   LIG     1      14.038  32.467  16.491  1.00  0.00     0.173 C 
HETATM    4  C   LIG     1      14.818  33.754  16.778  1.00  0.00     0.183 C 
HETATM    5  C   LIG     1      15.910  33.987  15.704  1.00  0.00     0.213 C 
HETATM    6  C   LIG     1      16.572  32.646  15.212  1.00  0.00     0.212 C 
ENDROOT
BRANCH   6   7
HETATM    7  C   LIG     1      16.062  32.243  13.798  1.00  0.00     0.235 C 
BRANCH   7   8
HETATM    8  O   LIG     1      16.368  33.251  12.874  1.00  0.00    -0.395 OA
HETATM    9  H   LIG     1      17.334  33.447  12.988  1.00  0.00     0.209 HD
ENDBRANCH   7   8
ENDBRANCH   6   7
BRANCH   6  10
HETATM   10  O   LIG     1      17.969  32.818  15.125  1.00  0.00    -0.362 OA
HETATM   11  H   LIG     1      18.187  33.751  15.388  1.00  0.00     0.213 HD
ENDBRANCH   6  10
BRANCH   5  12
HETATM   12  O   LIG     1      16.883  34.867  16.212  1.00  0.00    -0.387 OA
HETATM   13  H   LIG     1      17.401  34.364  16.895  1.00  0.00     0.210 HD
ENDBRANCH   5  12
BRANCH   4  14
HETATM   14  O   LIG     1      15.348  33.748  18.085  1.00  0.00    -0.390 OA
HETATM   15  H   LIG     1      16.244  34.172  18.062  1.00  0.00     0.210 HD
ENDBRANCH   4  14
BRANCH   3  16
HETATM   16  O   LIG     1      13.110  32.239  17.520  1.00  0.00    -0.391 OA
HETATM   17  H   LIG     1      12.328  31.790  17.104  1.00  0.00     0.210 HD
ENDBRANCH   3  16
TORSDOF 6
ENDMDL
MODEL 15
REMARK VINA RESULT:      -3.6      2.635      4.397
REMARK  6 active torsions:
REMARK  status: ('A' for Active; 'I' for Inactive)
REMARK    1  A    between atoms: C_3  and  O_4 
REMARK    2  A    between atoms: C_5  and  O_6 
REMARK    3  A    between atoms: C_7  and  O_8 
REMARK    4  A    between atoms: C_9  and  C_11 
REMARK    5  A    between atoms: C_9  and  O_10 
REMARK    6  A    between atoms: C_11  and  O_12 
ROOT
HETATM    1  O   LIG     1      19.238  37.376  20.803  1.00  0.00    -0.349 OA
HETATM    2  C   LIG     1      18.468  36.532  19.957  1.00  0.00     0.206 C 
HETATM    3  C   LIG     1      16.980  36.406  20.361  1.00  0.00     0.173 C 
HETATM    4  C   LIG     1      16.742  36.920  21.784  1.00  0.00     0.183 C 
HETATM    5  C   LIG     1      17.283  38.363  21.946  1.00  0.00     0.213 C 
HETATM    6  C   LIG     1      18.606  38.609  21.130  1.00  0.00     0.212 C 
ENDROOT
BRANCH   6   7
HETATM    7  C   LIG     1      18.340  39.454  19.850  1.00  0.00     0.235 C 
BRANCH   7   8
HETATM    8  O   LIG     1      19.542  39.670  19.162  1.00  0.00    -0.395 OA
HETATM    9  H   LIG     1      20.062  40.314  19.709  1.00  0.00     0.209 HD
ENDBRANCH   7   8
ENDBRANCH   6   7
BRANCH   6  10
HETATM   10  O   LIG     1      19.521  39.326  21.928  1.00  0.00    -0.362 OA
HETATM   11  H   LIG     1      19.026  40.041  22.408  1.00  0.00     0.213 HD
ENDBRANCH   6  10
BRANCH   5  12
HETATM   12  O   LIG     1      17.480  38.636  23.312  1.00  0.00    -0.387 OA
HETATM   13  H   LIG     1      18.460  38.722  23.452  1.00  0.00     0.210 HD
ENDBRANCH   5  12
BRANCH   4  14
HETATM   14  O   LIG     1      17.281  36.038  22.742  1.00  0.00    -0.390 OA
HETATM   15  H   LIG     1      18.087  36.458  23.138  1.00  0.00     0.210 HD
ENDBRANCH   4  14
BRANCH   3  16
HETATM   16  O   LIG     1      16.552  35.071  20.264  1.00  0.00    -0.391 OA
HETATM   17  H   LIG     1      17.156  34.536  20.843  1.00  0.00     0.210 HD
ENDBRANCH   3  16
TORSDOF 6
ENDMDL
MODEL 16
REMARK VINA RESULT:      -3.6      9.576     11.120
REMARK  6 active torsions:
REMARK  status: ('A' for Active; 'I' for Inactive)
REMARK    1  A    between atoms: C_3  and  O_4 
REMARK    2  A    between atoms: C_5  and  O_6 
REMARK    3  A    between atoms: C_7  and  O_8 
REMARK    4  A    between atoms: C_9  and  C_11 
REMARK    5  A    between atoms: C_9  and  O_10 
REMARK    6  A    between atoms: C_11  and  O_12 
ROOT
HETATM    1  O   LIG     1      15.022  31.631  13.723  1.00  0.00    -0.349 OA
HETATM    2  C   LIG     1      16.367  32.086  13.811  1.00  0.00     0.206 C 
HETATM    3  C   LIG     1      16.871  32.320  15.254  1.00  0.00     0.173 C 
HETATM    4  C   LIG     1      15.708  32.363  16.252  1.00  0.00     0.183 C 
HETATM    5  C   LIG     1      14.829  31.094  16.127  1.00  0.00     0.213 C 
HETATM    6  C   LIG     1      14.696  30.593  14.640  1.00  0.00     0.212 C 
ENDROOT
BRANCH   6   7
HETATM    7  C   LIG     1      15.568  29.329  14.383  1.00  0.00     0.235 C 
BRANCH   7   8
HETATM    8  O   LIG     1      15.251  28.775  13.136  1.00  0.00    -0.395 OA
HETATM    9  H   LIG     1      14.635  28.019  13.318  1.00  0.00     0.209 HD
ENDBRANCH   7   8
ENDBRANCH   6   7
BRANCH   6  10
HETATM   10  O   LIG     1      13.356  30.240  14.383  1.00  0.00    -0.362 OA
HETATM   11  H   LIG     1      13.323  29.274  14.154  1.00  0.00     0.213 HD
ENDBRANCH   6  10
BRANCH   5  12
HETATM   12  O   LIG     1      13.561  31.348  16.683  1.00  0.00    -0.387 OA
HETATM   13  H   LIG     1      12.888  30.977  16.052  1.00  0.00     0.210 HD
ENDBRANCH   5  12
BRANCH   4  14
HETATM   14  O   LIG     1      14.958  33.548  16.111  1.00  0.00    -0.390 OA
HETATM   15  H   LIG     1      15.571  34.321  16.211  1.00  0.00     0.210 HD
ENDBRANCH   4  14
BRANCH   3  16
HETATM   16  O   LIG     1      17.604  33.516  15.334  1.00  0.00    -0.391 OA
HETATM   17  H   LIG     1      16.951  34.238  15.526  1.00  0.00     0.210 HD
ENDBRANCH   3  16
TORSDOF 6
ENDMDL
MODEL 17
REMARK VINA RESULT:      -3.4      9.035     10.866
REMARK  6 active torsions:
REMARK  status: ('A' for Active; 'I' for Inactive)
REMARK    1  A    between atoms: C_3  and  O_4 
REMARK    2  A    between atoms: C_5  and  O_6 
REMARK    3  A    between atoms: C_7  and  O_8 
REMARK    4  A    between atoms: C_9  and  C_11 
REMARK    5  A    between atoms: C_9  and  O_10 
REMARK    6  A    between atoms: C_11  and  O_12 
ROOT
HETATM    1  O   LIG     1      16.067  32.930  13.439  1.00  0.00    -0.349 OA
HETATM    2  C   LIG     1      17.348  32.976  12.823  1.00  0.00     0.206 C 
HETATM    3  C   LIG     1      18.430  33.710  13.649  1.00  0.00     0.173 C 
HETATM    4  C   LIG     1      17.805  34.541  14.775  1.00  0.00     0.183 C 
HETATM    5  C   LIG     1      16.876  33.666  15.654  1.00  0.00     0.213 C 
HETATM    6  C   LIG     1      16.095  32.584  14.819  1.00  0.00     0.212 C 
ENDROOT
BRANCH   6   7
HETATM    7  C   LIG     1      16.693  31.162  15.024  1.00  0.00     0.235 C 
BRANCH   7   8
HETATM    8  O   LIG     1      15.913  30.214  14.346  1.00  0.00    -0.395 OA
HETATM    9  H   LIG     1      16.219  29.326  14.665  1.00  0.00     0.209 HD
ENDBRANCH   7   8
ENDBRANCH   6   7
BRANCH   6  10
HETATM   10  O   LIG     1      14.751  32.544  15.246  1.00  0.00    -0.362 OA
HETATM   11  H   LIG     1      14.504  31.596  15.414  1.00  0.00     0.213 HD
ENDBRANCH   6  10
BRANCH   5  12
HETATM   12  O   LIG     1      15.983  34.495  16.357  1.00  0.00    -0.387 OA
HETATM   13  H   LIG     1      15.906  35.341  15.841  1.00  0.00     0.210 HD
ENDBRANCH   5  12
BRANCH   4  14
HETATM   14  O   LIG     1      17.144  35.676  14.265  1.00  0.00    -0.390 OA
HETATM   15  H   LIG     1      16.200  35.433  14.080  1.00  0.00     0.210 HD
ENDBRANCH   4  14
BRANCH   3  16
HETATM   16  O   LIG     1      19.203  34.543  12.824  1.00  0.00    -0.391 OA
HETATM   17  H   LIG     1      18.685  34.675  11.987  1.00  0.00     0.210 HD
ENDBRANCH   3  16
TORSDOF 6
ENDMDL
MODEL 18
REMARK VINA RESULT:      -3.3      2.311      4.060
REMARK  6 active torsions:
REMARK  status: ('A' for Active; 'I' for Inactive)
REMARK    1  A    between atoms: C_3  and  O_4 
REMARK    2  A    between atoms: C_5  and  O_6 
REMARK    3  A    between atoms: C_7  and  O_8 
REMARK    4  A    between atoms: C_9  and  C_11 
REMARK    5  A    between atoms: C_9  and  O_10 
REMARK    6  A    between atoms: C_11  and  O_12 
ROOT
HETATM    1  O   LIG     1      18.110  37.292  21.128  1.00  0.00    -0.349 OA
HETATM    2  C   LIG     1      16.721  37.381  21.421  1.00  0.00     0.206 C 
HETATM    3  C   LIG     1      16.361  38.424  22.505  1.00  0.00     0.173 C 
HETATM    4  C   LIG     1      17.602  38.872  23.283  1.00  0.00     0.183 C 
HETATM    5  C   LIG     1      18.706  39.373  22.318  1.00  0.00     0.213 C 
HETATM    6  C   LIG     1      18.756  38.551  20.977  1.00  0.00     0.212 C 
ENDROOT
BRANCH   6   7
HETATM    7  C   LIG     1      18.144  39.352  19.792  1.00  0.00     0.235 C 
BRANCH   7   8
HETATM    8  O   LIG     1      19.100  39.515  18.780  1.00  0.00    -0.395 OA
HETATM    9  H   LIG     1      19.784  38.813  18.931  1.00  0.00     0.209 HD
ENDBRANCH   7   8
ENDBRANCH   6   7
BRANCH   6  10
HETATM   10  O   LIG     1      20.099  38.272  20.649  1.00  0.00    -0.362 OA
HETATM   11  H   LIG     1      20.685  38.841  21.215  1.00  0.00     0.213 HD
ENDBRANCH   6  10
BRANCH   5  12
HETATM   12  O   LIG     1      19.950  39.335  22.974  1.00  0.00    -0.387 OA
HETATM   13  H   LIG     1      20.639  39.590  22.305  1.00  0.00     0.210 HD
ENDBRANCH   5  12
BRANCH   4  14
HETATM   14  O   LIG     1      18.064  37.851  24.139  1.00  0.00    -0.390 OA
HETATM   15  H   LIG     1      17.998  38.172  25.075  1.00  0.00     0.210 HD
ENDBRANCH   4  14
BRANCH   3  16
HETATM   16  O   LIG     1      15.408  37.903  23.396  1.00  0.00    -0.391 OA
HETATM   17  H   LIG     1      15.873  37.214  23.939  1.00  0.00     0.210 HD
ENDBRANCH   3  16
TORSDOF 6
ENDMDL
MODEL 19
REMARK VINA RESULT:      -3.2      8.048      9.848
REMARK  6 active torsions:
REMARK  status: ('A' for Active; 'I' for Inactive)
REMARK    1  A    between atoms: C_3  and  O_4 
REMARK    2  A    between atoms: C_5  and  O_6 
REMARK    3  A    between atoms: C_7  and  O_8 
REMARK    4  A    between atoms: C_9  and  C_11 
REMARK    5  A    between atoms: C_9  and  O_10 
REMARK    6  A    between atoms: C_11  and  O_12 
ROOT
HETATM    1  O   LIG     1      14.137  32.219  15.296  1.00  0.00    -0.349 OA
HETATM    2  C   LIG     1      15.336  31.567  14.897  1.00  0.00     0.206 C 
HETATM    3  C   LIG     1      16.597  32.012  15.676  1.00  0.00     0.173 C 
HETATM    4  C   LIG     1      16.346  33.311  16.449  1.00  0.00     0.183 C 
HETATM    5  C   LIG     1      15.099  33.178  17.359  1.00  0.00     0.213 C 
HETATM    6  C   LIG     1      13.962  32.309  16.705  1.00  0.00     0.212 C 
ENDROOT
BRANCH   6   7
HETATM    7  C   LIG     1      13.885  30.893  17.347  1.00  0.00     0.235 C 
BRANCH   7   8
HETATM    8  O   LIG     1      12.709  30.247  16.941  1.00  0.00    -0.395 OA
HETATM    9  H   LIG     1      12.995  29.445  16.433  1.00  0.00     0.209 HD
ENDBRANCH   7   8
ENDBRANCH   6   7
BRANCH   6  10
HETATM   10  O   LIG     1      12.716  32.935  16.912  1.00  0.00    -0.362 OA
HETATM   11  H   LIG     1      12.751  33.428  17.775  1.00  0.00     0.213 HD
ENDBRANCH   6  10
BRANCH   5  12
HETATM   12  O   LIG     1      14.621  34.461  17.685  1.00  0.00    -0.387 OA
HETATM   13  H   LIG     1      15.339  35.107  17.449  1.00  0.00     0.210 HD
ENDBRANCH   5  12
BRANCH   4  14
HETATM   14  O   LIG     1      16.254  34.415  15.576  1.00  0.00    -0.390 OA
HETATM   15  H   LIG     1      17.081  34.454  15.031  1.00  0.00     0.210 HD
ENDBRANCH   4  14
BRANCH   3  16
HETATM   16  O   LIG     1      17.682  32.186  14.802  1.00  0.00    -0.391 OA
HETATM   17  H   LIG     1      17.739  33.158  14.608  1.00  0.00     0.210 HD
ENDBRANCH   3  16
TORSDOF 6
ENDMDL
MODEL 20
REMARK VINA RESULT:      -2.9     18.111     19.164
REMARK  6 active torsions:
REMARK  status: ('A' for Active; 'I' for Inactive)
REMARK    1  A    between atoms: C_3  and  O_4 
REMARK    2  A    between atoms: C_5  and  O_6 
REMARK    3  A    between atoms: C_7  and  O_8 
REMARK    4  A    between atoms: C_9  and  C_11 
REMARK    5  A    between atoms: C_9  and  O_10 
REMARK    6  A    between atoms: C_11  and  O_12 
ROOT
HETATM    1  O   LIG     1      20.905  22.153  33.740  1.00  0.00    -0.349 OA
HETATM    2  C   LIG     1      22.019  21.278  33.871  1.00  0.00     0.206 C 
HETATM    3  C   LIG     1      22.851  21.492  35.158  1.00  0.00     0.173 C 
HETATM    4  C   LIG     1      22.515  22.829  35.826  1.00  0.00     0.183 C 
HETATM    5  C   LIG     1      20.990  22.951  36.076  1.00  0.00     0.213 C 
HETATM    6  C   LIG     1      20.134  22.300  34.927  1.00  0.00     0.212 C 
ENDROOT
BRANCH   6   7
HETATM    7  C   LIG     1      19.527  20.936  35.369  1.00  0.00     0.235 C 
BRANCH   7   8
HETATM    8  O   LIG     1      19.791  20.714  36.728  1.00  0.00    -0.395 OA
HETATM    9  H   LIG     1      20.257  21.527  37.055  1.00  0.00     0.209 HD
ENDBRANCH   7   8
ENDBRANCH   6   7
BRANCH   6  10
HETATM   10  O   LIG     1      19.061  23.154  34.601  1.00  0.00    -0.362 OA
HETATM   11  H   LIG     1      19.246  23.567  33.716  1.00  0.00     0.213 HD
ENDBRANCH   6  10
BRANCH   5  12
HETATM   12  O   LIG     1      20.653  24.307  36.243  1.00  0.00    -0.387 OA
HETATM   13  H   LIG     1      20.696  24.498  37.217  1.00  0.00     0.210 HD
ENDBRANCH   5  12
BRANCH   4  14
HETATM   14  O   LIG     1      23.022  23.913  35.081  1.00  0.00    -0.390 OA
HETATM   15  H   LIG     1      23.032  23.659  34.123  1.00  0.00     0.210 HD
ENDBRANCH   4  14
BRANCH   3  16
HETATM   16  O   LIG     1      24.226  21.441  34.872  1.00  0.00    -0.391 OA
HETATM   17  H   LIG     1      24.513  22.373  34.691  1.00  0.00     0.210 HD
ENDBRANCH   3  16
TORSDOF 6
ENDMDL
