REMARK  0 active torsions:
REMARK  status: ('A' for Active; 'I' for Inactive)
ROOT
HETATM    1  O   LIG     1       2.289   0.830  -1.558  1.00  0.00    -0.223 OA
HETATM    2  C   LIG     1       1.983   0.672  -0.199  1.00  0.00     0.154 C 
HETATM    3  C   LIG     1       2.430  -0.707   0.302  1.00  0.00     0.033 C 
HETATM    4  C   LIG     1       1.397  -1.584   0.365  1.00  0.00     0.004 C 
HETATM    5  C   LIG     1       0.288  -0.942  -0.378  1.00  0.00     0.025 C 
HETATM    6  C   LIG     1       0.488   0.504   0.042  1.00  0.00     0.053 C 
HETATM    7  C   LIG     1      -0.871   1.161  -0.385  1.00  0.00     0.126 C 
HETATM    8  C   LIG     1      -1.801   0.796   0.766  1.00  0.00     0.059 C 
HETATM    9 CL   LIG     1      -2.516   1.893   1.941  1.00  0.00    -0.085 Cl
HETATM   10  C   LIG     1      -1.952  -0.542   0.737  1.00  0.00     0.059 C 
HETATM   11  C   LIG     1      -1.252  -1.037  -0.519  1.00  0.00     0.123 C 
HETATM   12  C   LIG     1      -1.480   0.208  -1.429  1.00  0.00     0.167 C 
HETATM   13 CL   LIG     1      -0.639   0.259  -3.026  1.00  0.00    -0.097 Cl
HETATM   14 CL   LIG     1      -3.224   0.526  -1.799  1.00  0.00    -0.097 Cl
HETATM   15 CL   LIG     1      -1.850  -2.583  -1.185  1.00  0.00    -0.108 Cl
HETATM   16 CL   LIG     1      -2.970  -1.484   1.817  1.00  0.00    -0.085 Cl
HETATM   17 CL   LIG     1      -0.801   2.893  -0.808  1.00  0.00    -0.108 Cl
ENDROOT
TORSDOF 0
