REMARK  1 active torsions:
REMARK  status: ('A' for Active; 'I' for Inactive)
REMARK    1  A    between atoms: C_17  and  C_18 
ROOT
HETATM    1 CL   LIG     1       1.732   0.000   0.000  1.00  0.00    -0.144 Cl
HETATM    2  C   LIG     1       1.732   1.000   0.000  1.00  0.00     0.157 A 
HETATM    3  C   LIG     1       2.598   1.500   0.000  1.00  0.00     0.057 A 
HETATM    4 CL   LIG     1       3.464   1.000   0.000  1.00  0.00    -0.149 Cl
HETATM    5  C   LIG     1       2.598   2.500   0.000  1.00  0.00     0.163 A 
HETATM    6 CL   LIG     1       3.464   3.000   0.000  1.00  0.00    -0.154 Cl
HETATM    7  C   LIG     1       1.732   3.000   0.000  1.00  0.00     0.164 A 
HETATM    8 CL   LIG     1       1.732   4.000   0.000  1.00  0.00    -0.154 Cl
HETATM    9  C   LIG     1       0.866   2.500   0.000  1.00  0.00     0.048 A 
HETATM   10 CL   LIG     1       0.000   3.000   0.000  1.00  0.00    -0.150 Cl
HETATM   11  C   LIG     1       0.866   1.500   0.000  1.00  0.00     0.013 A 
HETATM   12  C   LIG     1       0.000   1.000   0.000  1.00  0.00     0.020 A 
HETATM   13  C   LIG     1      -0.866   1.500   0.000  1.00  0.00     0.153 A 
HETATM   14 CL   LIG     1      -0.866   2.500   0.000  1.00  0.00    -0.159 Cl
HETATM   15  C   LIG     1      -1.732   1.000   0.000  1.00  0.00     0.142 A 
HETATM   16 CL   LIG     1      -2.598   1.500   0.000  1.00  0.00    -0.181 Cl
HETATM   17  C   LIG     1      -1.732   0.000   0.000  1.00  0.00     0.149 A 
HETATM   18  C   LIG     1      -0.866  -0.500   0.000  1.00  0.00     0.154 A 
HETATM   19 CL   LIG     1      -0.866  -1.500   0.000  1.00  0.00    -0.148 Cl
HETATM   20  C   LIG     1       0.000   0.000   0.000  1.00  0.00     0.171 A 
HETATM   21 CL   LIG     1       0.866  -0.500   0.000  1.00  0.00    -0.148 Cl
ENDROOT
TORSDOF 1
