REMARK  1 active torsions:
REMARK  status: ('A' for Active; 'I' for Inactive)
REMARK    1  A    between atoms: C_2  and  C_3 
ROOT
HETATM    1  C   LIG     1       0.876  -0.065  -0.115  1.00  0.00     0.042 A 
HETATM    2  C   LIG     1       0.258   1.196  -0.117  1.00  0.00     0.003 A 
HETATM    3  C   LIG     1      -1.125   1.305   0.064  1.00  0.00     0.000 A 
HETATM    4  C   LIG     1      -1.900   0.157   0.248  1.00  0.00     0.000 A 
HETATM    5  C   LIG     1      -1.294  -1.102   0.252  1.00  0.00     0.000 A 
HETATM    6  C   LIG     1       0.088  -1.216   0.071  1.00  0.00     0.003 A 
ENDROOT
BRANCH   1   7
HETATM    7  C   LIG     1       2.334  -0.162  -0.307  1.00  0.00     0.234 C 
HETATM    8  O   LIG     1       2.917  -1.279  -0.309  1.00  0.00    -0.283 OA
ENDBRANCH   1   7
TORSDOF 1
