REMARK  1 active torsions:
REMARK  status: ('A' for Active; 'I' for Inactive)
REMARK    1  A    between atoms: N_2  and  N_3 
ROOT
HETATM    1  N   LIG     1       1.109  -0.627  -0.014  1.00  0.00    -0.248 N 
HETATM    2  C   LIG     1      -0.078  -1.454   0.206  1.00  0.00     0.124 C 
HETATM    3  C   LIG     1      -1.317  -0.780  -0.390  1.00  0.00     0.026 C 
HETATM    4  C   LIG     1      -1.443   0.664   0.107  1.00  0.00     0.004 C 
HETATM    5  C   LIG     1      -0.179   1.463  -0.227  1.00  0.00     0.026 C 
HETATM    6  C   LIG     1       1.066   0.792   0.362  1.00  0.00     0.124 C 
ENDROOT
BRANCH   1   7
HETATM    7  N   LIG     1       2.332  -1.274  -0.269  1.00  0.00    -0.015 NA
HETATM    8  O   LIG     1       3.406  -0.641  -0.335  1.00  0.00    -0.042 OA
ENDBRANCH   1   7
TORSDOF 1
