REMARK  1 active torsions:
REMARK  status: ('A' for Active; 'I' for Inactive)
REMARK    1  A    between atoms: N_2  and  C_3 
ROOT
HETATM    1  C   LIG     1       0.402  -0.215  -0.008  1.00  0.00     0.105 A 
HETATM    2  C   LIG     1      -0.470  -1.314   0.064  1.00  0.00     0.021 A 
HETATM    3  C   LIG     1      -1.853  -1.116   0.109  1.00  0.00     0.002 A 
HETATM    4  C   LIG     1      -2.377   0.179   0.084  1.00  0.00     0.000 A 
HETATM    5  C   LIG     1      -1.518   1.279   0.013  1.00  0.00     0.002 A 
HETATM    6  C   LIG     1      -0.133   1.086  -0.033  1.00  0.00     0.021 A 
ENDROOT
BRANCH   1   7
HETATM    7  N   LIG     1       1.820  -0.436  -0.053  1.00  0.00    -0.127 NA
HETATM    8  N   LIG     1       2.725   0.634  -0.125  1.00  0.00    -0.022 N 
ENDBRANCH   1   7
TORSDOF 1
