REMARK  1 active torsions:
REMARK  status: ('A' for Active; 'I' for Inactive)
REMARK    1  A    between atoms: C_2  and  C_3 
ROOT
HETATM    1  C   LIG     1       0.404  -0.171  -0.135  1.00  0.00     0.030 A 
HETATM    2  C   LIG     1      -0.415   0.916  -0.473  1.00  0.00     0.001 A 
HETATM    3  C   LIG     1      -1.792   0.847  -0.256  1.00  0.00     0.021 A 
HETATM    4  C   LIG     1      -2.340  -0.311   0.298  1.00  0.00     0.099 A 
HETATM    5  N   LIG     1      -1.535  -1.359   0.620  1.00  0.00    -0.243 NA
HETATM    6  C   LIG     1      -0.190  -1.316   0.418  1.00  0.00     0.097 A 
ENDROOT
BRANCH   1   7
HETATM    7  C   LIG     1       1.889  -0.105  -0.369  1.00  0.00     0.210 C 
HETATM    8  O   LIG     1       2.455   0.926   0.392  1.00  0.00    -0.215 OA
ENDBRANCH   1   7
TORSDOF 1
