REMARK  1 active torsions:
REMARK  status: ('A' for Active; 'I' for Inactive)
REMARK    1  A    between atoms: N_2  and  C_3 
ROOT
HETATM    1  C   LIG     1       0.621   0.230   0.186  1.00  0.00     0.111 A 
HETATM    2  C   LIG     1       0.203  -1.093  -0.046  1.00  0.00     0.021 A 
HETATM    3  C   LIG     1      -1.147  -1.373  -0.285  1.00  0.00     0.002 A 
HETATM    4  C   LIG     1      -2.086  -0.338  -0.294  1.00  0.00     0.000 A 
HETATM    5  C   LIG     1      -1.678   0.978  -0.064  1.00  0.00     0.002 A 
HETATM    6  C   LIG     1      -0.329   1.262   0.175  1.00  0.00     0.021 A 
ENDROOT
BRANCH   1   7
HETATM    7  N   LIG     1       2.002   0.533   0.431  1.00  0.00    -0.096 NA
HETATM    8  O   LIG     1       2.944  -0.440   0.457  1.00  0.00    -0.061 OA
ENDBRANCH   1   7
TORSDOF 1
