REMARK  0 active torsions:
REMARK  status: ('A' for Active; 'I' for Inactive)
ROOT
HETATM    1  C   LIG     1      -2.015   0.063   0.013  1.00  0.00     0.061 C 
HETATM    2  C   LIG     1      -0.573  -0.308  -0.083  1.00  0.00     0.107 A 
HETATM    3  C   LIG     1       0.505   0.523   0.140  1.00  0.00     0.072 A 
HETATM    4  C   LIG     1       1.581  -0.308  -0.079  1.00  0.00     0.239 A 
HETATM    5  O   LIG     1       2.920   0.054   0.021  1.00  0.00    -0.167 OA
HETATM    6  N   LIG     1       1.166  -1.544  -0.409  1.00  0.00    -0.099 NA
HETATM    7  O   LIG     1      -0.136  -1.506  -0.401  1.00  0.00    -0.213 OA
ENDROOT
TORSDOF 0
