REMARK  13 active torsions:
REMARK  status: ('A' for Active; 'I' for Inactive)
REMARK    1  A    between atoms: C_2  and  C_4 
REMARK    2  A    between atoms: C_4  and  C_5 
REMARK    3  A    between atoms: C_5  and  C_6 
REMARK    4  A    between atoms: C_6  and  C_7 
REMARK    5  A    between atoms: C_7  and  C_8 
REMARK    6  A    between atoms: C_8  and  C_9 
REMARK    7  A    between atoms: C_9  and  C_10 
REMARK    8  A    between atoms: C_10  and  C_11 
REMARK    9  A    between atoms: C_11  and  C_12 
REMARK   10  A    between atoms: C_12  and  C_13 
REMARK   11  A    between atoms: C_13  and  C_14 
REMARK   12  A    between atoms: C_14  and  C_15 
REMARK   13  A    between atoms: C_15  and  C_16 
ROOT
HETATM    1  C   LIG     1      -1.065   0.716   0.088  1.00  0.00     0.000 C 
ENDROOT
BRANCH   1   2
HETATM    2  C   LIG     1      -2.106   0.063   1.015  1.00  0.00     0.000 C 
BRANCH   2   3
HETATM    3  C   LIG     1      -2.912  -1.087   0.379  1.00  0.00     0.000 C 
BRANCH   3   4
HETATM    4  C   LIG     1      -3.668  -0.721  -0.914  1.00  0.00     0.001 C 
BRANCH   4   5
HETATM    5  C   LIG     1      -4.644   0.463  -0.782  1.00  0.00     0.011 C 
BRANCH   5   6
HETATM    6  C   LIG     1      -5.777   0.191   0.216  1.00  0.00     0.098 C 
BRANCH   6   7
HETATM    7  C   LIG     1      -6.767   1.316   0.200  1.00  0.00     0.185 C 
HETATM    8  O   LIG     1      -7.816   1.220  -0.490  1.00  0.00    -0.647 OA
HETATM    9  O   LIG     1      -6.517   2.488   0.907  1.00  0.00    -0.647 OA
ENDBRANCH   6   7
ENDBRANCH   5   6
ENDBRANCH   4   5
ENDBRANCH   3   4
ENDBRANCH   2   3
ENDBRANCH   1   2
BRANCH   1  10
HETATM   10  C   LIG     1       0.027  -0.264  -0.366  1.00  0.00     0.000 C 
BRANCH  10  11
HETATM   11  C   LIG     1       1.131   0.468  -1.143  1.00  0.00     0.000 C 
BRANCH  11  12
HETATM   12  C   LIG     1       2.163  -0.492  -1.762  1.00  0.00     0.000 C 
BRANCH  12  13
HETATM   13  C   LIG     1       2.933  -1.365  -0.750  1.00  0.00     0.000 C 
BRANCH  13  14
HETATM   14  C   LIG     1       3.666  -0.591   0.361  1.00  0.00     0.000 C 
BRANCH  14  15
HETATM   15  C   LIG     1       4.756   0.347  -0.185  1.00  0.00     0.000 C 
BRANCH  15  16
HETATM   16  C   LIG     1       5.519   1.075   0.933  1.00  0.00     0.000 C 
HETATM   17  C   LIG     1       6.479   0.157   1.690  1.00  0.00     0.000 C 
ENDBRANCH  15  16
ENDBRANCH  14  15
ENDBRANCH  13  14
ENDBRANCH  12  13
ENDBRANCH  11  12
ENDBRANCH  10  11
ENDBRANCH   1  10
TORSDOF 13
