REMARK  5 active torsions:
REMARK  status: ('A' for Active; 'I' for Inactive)
REMARK       I    between atoms: C_2  and  N_9 
REMARK    1  A    between atoms: C_2  and  O_3 
REMARK    2  A    between atoms: O_3  and  C_4 
REMARK    3  A    between atoms: C_4  and  C_5 
REMARK    4  A    between atoms: C_6  and  C_7 
REMARK    5  A    between atoms: N_9  and  C_10 
ROOT
HETATM    1  O   LIG     1      -0.110   1.835  -0.353  1.00  0.00    -0.236 OA
HETATM    2  C   LIG     1       0.197   0.628  -0.155  1.00  0.00     0.389 C 
HETATM    3  N   LIG     1      -0.811  -0.392  -0.155  1.00  0.00    -0.186 NA
ENDROOT
BRANCH   2   4
HETATM    4  O   LIG     1       1.534   0.262   0.026  1.00  0.00    -0.269 OA
BRANCH   4   5
HETATM    5  C   LIG     1       2.596   1.209   0.025  1.00  0.00     0.229 C 
BRANCH   5   6
HETATM    6  C   LIG     1       3.864   0.512   0.238  1.00  0.00    -0.056 C 
HETATM    7  C   LIG     1       4.910  -0.063   0.412  1.00  0.00    -0.070 C 
BRANCH   7   8
HETATM    8  C   LIG     1       6.178  -0.761   0.623  1.00  0.00     0.170 C 
HETATM    9 CL   LIG     1       6.900  -1.171  -0.950  1.00  0.00    -0.099 Cl
ENDBRANCH   7   8
ENDBRANCH   5   6
ENDBRANCH   4   5
ENDBRANCH   2   4
BRANCH   3  10
HETATM   10  C   LIG     1      -2.226  -0.135  -0.155  1.00  0.00     0.087 A 
HETATM   11  C   LIG     1      -2.774   0.957   0.544  1.00  0.00     0.019 A 
HETATM   12  C   LIG     1      -4.156   1.169   0.547  1.00  0.00     0.002 A 
HETATM   13  C   LIG     1      -5.003   0.290  -0.132  1.00  0.00     0.011 A 
HETATM   14  C   LIG     1      -4.470  -0.810  -0.810  1.00  0.00     0.059 A 
HETATM   15  C   LIG     1      -3.087  -1.026  -0.814  1.00  0.00     0.031 A 
HETATM   16 CL   LIG     1      -5.534  -1.922  -1.651  1.00  0.00    -0.082 Cl
ENDBRANCH   3  10
TORSDOF 5
