REMARK  2 active torsions:
REMARK  status: ('A' for Active; 'I' for Inactive)
REMARK    1  A    between atoms: C_1  and  O_2 
REMARK    2  A    between atoms: O_2  and  C_3 
ROOT
HETATM    1  O   LIG     1      -0.071  -0.721  -1.058  1.00  0.00    -0.307 OA
ENDROOT
BRANCH   1   2
HETATM    2  C   LIG     1      -1.267  -0.168  -0.574  1.00  0.00     0.100 A 
HETATM    3  C   LIG     1      -2.288   0.129  -1.486  1.00  0.00     0.025 A 
HETATM    4  C   LIG     1      -3.499   0.666  -1.041  1.00  0.00     0.002 A 
HETATM    5  C   LIG     1      -3.703   0.899   0.322  1.00  0.00     0.000 A 
HETATM    6  C   LIG     1      -2.698   0.587   1.242  1.00  0.00     0.002 A 
HETATM    7  C   LIG     1      -1.485   0.050   0.799  1.00  0.00     0.025 A 
ENDBRANCH   1   2
BRANCH   1   8
HETATM    8  C   LIG     1       1.196  -0.550  -0.480  1.00  0.00     0.100 A 
HETATM    9  C   LIG     1       2.145  -1.569  -0.628  1.00  0.00     0.025 A 
HETATM   10  C   LIG     1       3.424  -1.430  -0.080  1.00  0.00     0.002 A 
HETATM   11  C   LIG     1       3.766  -0.263   0.610  1.00  0.00     0.000 A 
HETATM   12  C   LIG     1       2.832   0.767   0.746  1.00  0.00     0.002 A 
HETATM   13  C   LIG     1       1.553   0.630   0.199  1.00  0.00     0.025 A 
ENDBRANCH   1   8
TORSDOF 2
