REMARK  3 active torsions:
REMARK  status: ('A' for Active; 'I' for Inactive)
REMARK       I    between atoms: C_2  and  N_7 
REMARK    1  A    between atoms: C_2  and  O_3 
REMARK    2  A    between atoms: O_3  and  C_4 
REMARK    3  A    between atoms: N_7  and  C_8 
ROOT
HETATM    1  C   LIG     1       1.931  -0.510   0.200  1.00  0.00     0.087 A 
HETATM    2  C   LIG     1       2.932  -1.446   0.505  1.00  0.00     0.019 A 
HETATM    3  C   LIG     1       4.268  -1.046   0.606  1.00  0.00     0.002 A 
HETATM    4  C   LIG     1       4.618   0.288   0.389  1.00  0.00     0.011 A 
HETATM    5  C   LIG     1       3.634   1.225   0.061  1.00  0.00     0.059 A 
HETATM    6 CL   LIG     1       4.078   2.896  -0.238  1.00  0.00    -0.082 Cl
HETATM    7  C   LIG     1       2.295   0.828  -0.041  1.00  0.00     0.031 A 
ENDROOT
BRANCH   1   8
HETATM    8  N   LIG     1       0.568  -0.952   0.080  1.00  0.00    -0.186 NA
HETATM    9  C   LIG     1      -0.573  -0.155   0.427  1.00  0.00     0.388 C 
HETATM   10  O   LIG     1      -0.432   0.920   1.072  1.00  0.00    -0.236 OA
BRANCH   9  11
HETATM   11  O   LIG     1      -1.850  -0.614   0.085  1.00  0.00    -0.286 OA
BRANCH  11  12
HETATM   12  C   LIG     1      -3.048   0.117   0.350  1.00  0.00     0.126 C 
HETATM   13  C   LIG     1      -4.241  -0.829   0.227  1.00  0.00     0.033 C 
HETATM   14  C   LIG     1      -3.186   1.283  -0.633  1.00  0.00     0.033 C 
ENDBRANCH  11  12
ENDBRANCH   9  11
ENDBRANCH   1   8
TORSDOF 3
