REMARK  1 active torsions:
REMARK  status: ('A' for Active; 'I' for Inactive)
REMARK       I    between atoms: C_2  and  N_3 
REMARK       I    between atoms: C_2  and  N_10 
REMARK    1  A    between atoms: N_3  and  C_4 
ROOT
HETATM    1  C   LIG     1       1.255   0.028  -0.407  1.00  0.00     0.086 A 
HETATM    2  C   LIG     1       1.829   0.377   0.830  1.00  0.00     0.019 A 
HETATM    3  C   LIG     1       3.220   0.445   0.968  1.00  0.00     0.002 A 
HETATM    4  C   LIG     1       4.047   0.179  -0.126  1.00  0.00     0.000 A 
HETATM    5  C   LIG     1       3.485  -0.147  -1.363  1.00  0.00     0.002 A 
HETATM    6  C   LIG     1       2.096  -0.216  -1.506  1.00  0.00     0.019 A 
ENDROOT
BRANCH   1   7
HETATM    7  N   LIG     1      -0.171  -0.025  -0.584  1.00  0.00    -0.193 NA
HETATM    8  C   LIG     1      -1.090  -0.423   0.450  1.00  0.00     0.346 C 
HETATM    9  O   LIG     1      -0.666  -1.084   1.439  1.00  0.00    -0.245 OA
HETATM   10  N   LIG     1      -2.495  -0.107   0.356  1.00  0.00    -0.297 N 
HETATM   11  C   LIG     1      -3.412  -0.608   1.385  1.00  0.00     0.130 C 
HETATM   12  C   LIG     1      -2.999   0.741  -0.729  1.00  0.00     0.130 C 
ENDBRANCH   1   7
TORSDOF 1
