REMARK  2 active torsions:
REMARK  status: ('A' for Active; 'I' for Inactive)
REMARK    1  A    between atoms: C_1  and  C_2 
REMARK    2  A    between atoms: C_2  and  C_3 
ROOT
HETATM    1  C   LIG     1      -0.001  -1.539   0.183  1.00  0.00     0.052 C 
ENDROOT
BRANCH   1   2
HETATM    2  C   LIG     1       1.236  -0.701   0.001  1.00  0.00    -0.018 A 
HETATM    3  C   LIG     1       2.026  -0.345   1.108  1.00  0.00    -0.004 A 
HETATM    4  C   LIG     1       3.156   0.460   0.936  1.00  0.00    -0.000 A 
HETATM    5  C   LIG     1       3.502   0.920  -0.338  1.00  0.00    -0.000 A 
HETATM    6  C   LIG     1       2.716   0.578  -1.442  1.00  0.00    -0.000 A 
HETATM    7  C   LIG     1       1.584  -0.226  -1.274  1.00  0.00    -0.004 A 
ENDBRANCH   1   2
BRANCH   1   8
HETATM    8  C   LIG     1      -1.227  -0.666   0.226  1.00  0.00    -0.018 A 
HETATM    9  C   LIG     1      -2.115  -0.630  -0.863  1.00  0.00    -0.004 A 
HETATM   10  C   LIG     1      -3.247   0.190  -0.821  1.00  0.00    -0.000 A 
HETATM   11  C   LIG     1      -3.501   0.977   0.305  1.00  0.00    -0.000 A 
HETATM   12  C   LIG     1      -2.623   0.947   1.392  1.00  0.00    -0.000 A 
HETATM   13  C   LIG     1      -1.490   0.129   1.355  1.00  0.00    -0.004 A 
ENDBRANCH   1   8
TORSDOF 2
