REMARK  2 active torsions:
REMARK  status: ('A' for Active; 'I' for Inactive)
REMARK    1  A    between atoms: C_5  and  C_8 
REMARK    2  A    between atoms: C_8  and  C_9 
ROOT
HETATM    1  C   LIG     1      -0.177   1.729  -0.524  1.00  0.00     0.053 C 
ENDROOT
BRANCH   1   2
HETATM    2  C   LIG     1      -1.330   0.841  -0.141  1.00  0.00    -0.018 A 
HETATM    3  C   LIG     1      -2.036   0.128  -1.123  1.00  0.00    -0.003 A 
HETATM    4  C   LIG     1      -3.087  -0.721  -0.760  1.00  0.00     0.014 A 
HETATM    5  C   LIG     1      -3.439  -0.871   0.589  1.00  0.00     0.070 A 
HETATM    6  N   LIG     1      -4.513  -1.740   0.960  1.00  0.00    -0.101 NA
HETATM    7  C   LIG     1      -2.729  -0.168   1.572  1.00  0.00     0.014 A 
HETATM    8  C   LIG     1      -1.678   0.681   1.210  1.00  0.00    -0.003 A 
ENDBRANCH   1   2
BRANCH   1   9
HETATM    9  C   LIG     1       1.131   1.011  -0.321  1.00  0.00    -0.018 A 
HETATM   10  C   LIG     1       1.515  -0.018  -1.197  1.00  0.00    -0.003 A 
HETATM   11  C   LIG     1       2.723  -0.693  -1.006  1.00  0.00     0.014 A 
HETATM   12  C   LIG     1       3.563  -0.350   0.062  1.00  0.00     0.070 A 
HETATM   13  C   LIG     1       3.183   0.676   0.939  1.00  0.00     0.014 A 
HETATM   14  N   LIG     1       4.799  -1.042   0.257  1.00  0.00    -0.101 NA
HETATM   15  C   LIG     1       1.974   1.352   0.749  1.00  0.00    -0.003 A 
ENDBRANCH   1   9
TORSDOF 2
