REMARK  2 active torsions:
REMARK  status: ('A' for Active; 'I' for Inactive)
REMARK       I    between atoms: C_2  and  N_3 
REMARK       I    between atoms: C_2  and  N_10 
REMARK    1  A    between atoms: N_3  and  C_4 
REMARK    2  A    between atoms: N_10  and  C_11 
ROOT
HETATM    1  O   LIG     1      -0.931  -1.278   1.964  1.00  0.00    -0.242 OA
HETATM    2  C   LIG     1      -0.183  -0.526   1.284  1.00  0.00     0.369 C 
HETATM    3  N   LIG     1       1.189  -0.376   1.677  1.00  0.00    -0.191 NA
HETATM    4  N   LIG     1      -0.705   0.187   0.147  1.00  0.00    -0.191 NA
ENDROOT
BRANCH   3   5
HETATM    5  C   LIG     1       2.267  -0.119   0.762  1.00  0.00     0.086 A 
HETATM    6  C   LIG     1       2.255  -0.636  -0.546  1.00  0.00     0.019 A 
HETATM    7  C   LIG     1       3.329  -0.398  -1.408  1.00  0.00     0.002 A 
HETATM    8  C   LIG     1       4.430   0.343  -0.968  1.00  0.00     0.000 A 
HETATM    9  C   LIG     1       4.460   0.839   0.337  1.00  0.00     0.002 A 
HETATM   10  C   LIG     1       3.387   0.603   1.202  1.00  0.00     0.019 A 
ENDBRANCH   3   5
BRANCH   4  11
HETATM   11  C   LIG     1      -2.061   0.082  -0.315  1.00  0.00     0.086 A 
HETATM   12  C   LIG     1      -3.145   0.045   0.582  1.00  0.00     0.019 A 
HETATM   13  C   LIG     1      -4.456  -0.030   0.102  1.00  0.00     0.002 A 
HETATM   14  C   LIG     1      -4.698  -0.056  -1.274  1.00  0.00     0.000 A 
HETATM   15  C   LIG     1      -3.630   0.005  -2.172  1.00  0.00     0.002 A 
HETATM   16  C   LIG     1      -2.317   0.082  -1.696  1.00  0.00     0.019 A 
ENDBRANCH   4  11
TORSDOF 2
