REMARK  1 active torsions:
REMARK  status: ('A' for Active; 'I' for Inactive)
REMARK    1  A    between atoms: C_10  and  C_11 
ROOT
HETATM    1  O   LIG     1       1.298   0.200  -3.251  1.00  0.00    -0.259 OA
HETATM    2  C   LIG     1       1.083   0.136  -2.011  1.00  0.00     0.303 A 
HETATM    3  C   LIG     1       2.148   0.106  -1.097  1.00  0.00     0.081 A 
HETATM    4  C   LIG     1       3.497   0.145  -1.494  1.00  0.00     0.007 A 
HETATM    5  C   LIG     1       4.508   0.112  -0.528  1.00  0.00     0.000 A 
HETATM    6  C   LIG     1       4.182   0.040   0.831  1.00  0.00     0.002 A 
HETATM    7  C   LIG     1       2.842   0.001   1.231  1.00  0.00     0.019 A 
HETATM    8  C   LIG     1       1.825   0.034   0.270  1.00  0.00     0.089 A 
HETATM    9  N   LIG     1       0.524  -0.004   0.650  1.00  0.00    -0.222 NA
HETATM   10  C   LIG     1      -0.473   0.028  -0.276  1.00  0.00     0.186 A 
HETATM   11  O   LIG     1      -0.170   0.096  -1.571  1.00  0.00    -0.255 OA
ENDROOT
BRANCH  10  12
HETATM   12  C   LIG     1      -1.892  -0.014   0.150  1.00  0.00     0.041 A 
HETATM   13  C   LIG     1      -2.235  -0.086   1.514  1.00  0.00     0.004 A 
HETATM   14  C   LIG     1      -3.576  -0.125   1.906  1.00  0.00     0.000 A 
HETATM   15  C   LIG     1      -4.589  -0.092   0.945  1.00  0.00     0.000 A 
HETATM   16  C   LIG     1      -4.262  -0.021  -0.411  1.00  0.00     0.000 A 
HETATM   17  C   LIG     1      -2.922   0.018  -0.809  1.00  0.00     0.004 A 
ENDBRANCH  10  12
TORSDOF 1
