REMARK  0 active torsions:
REMARK  status: ('A' for Active; 'I' for Inactive)
ROOT
HETATM    1 CL   LIG     1      -0.944  -2.594   1.697  1.00  0.00    -0.108 Cl
HETATM    2  C   LIG     1      -0.511  -0.932   1.211  1.00  0.00     0.126 C 
HETATM    3  C   LIG     1       0.347  -0.154   2.202  1.00  0.00     0.059 C 
HETATM    4 CL   LIG     1       1.252  -0.806   3.562  1.00  0.00    -0.085 Cl
HETATM    5  C   LIG     1       0.309   1.136   1.822  1.00  0.00     0.059 C 
HETATM    6 CL   LIG     1       1.098   2.475   2.644  1.00  0.00    -0.085 Cl
HETATM    7  C   LIG     1       0.299  -0.801  -0.126  1.00  0.00     0.054 C 
HETATM    8  C   LIG     1       0.386  -1.552  -1.442  1.00  0.00     0.145 A 
HETATM    9  O   LIG     1       1.702  -1.577  -1.963  1.00  0.00    -0.353 OA
HETATM   10  C   LIG     1       0.894  -0.519  -2.433  1.00  0.00     0.157 A 
HETATM   11  C   LIG     1       0.927   0.855  -1.673  1.00  0.00     0.111 C 
HETATM   12 CL   LIG     1       2.545   1.265  -1.022  1.00  0.00    -0.113 Cl
HETATM   13  C   LIG     1      -0.110   0.573  -0.606  1.00  0.00     0.043 C 
HETATM   14  C   LIG     1      -1.657   0.088   1.107  1.00  0.00     0.167 C 
HETATM   15 CL   LIG     1      -2.508   0.415   2.671  1.00  0.00    -0.097 Cl
HETATM   16 CL   LIG     1      -2.954  -0.412  -0.046  1.00  0.00    -0.097 Cl
HETATM   17  C   LIG     1      -0.684   1.227   0.675  1.00  0.00     0.125 C 
HETATM   18 CL   LIG     1      -1.444   2.824   0.428  1.00  0.00    -0.108 Cl
ENDROOT
TORSDOF 0
