REMARK  1 active torsions:
REMARK  status: ('A' for Active; 'I' for Inactive)
REMARK       I    between atoms: C_2  and  N_3 
REMARK    1  A    between atoms: N_3  and  C_4 
ROOT
HETATM    1  C   LIG     1      -0.075   0.135   0.435  1.00  0.00     0.085 A 
HETATM    2  C   LIG     1      -0.600  -0.014  -0.862  1.00  0.00     0.021 A 
HETATM    3  C   LIG     1      -1.969  -0.227  -1.049  1.00  0.00     0.029 A 
HETATM    4  C   LIG     1      -0.949   0.103   1.532  1.00  0.00     0.021 A 
HETATM    5  C   LIG     1      -2.317  -0.111   1.343  1.00  0.00     0.029 A 
HETATM    6  C   LIG     1      -2.830  -0.280   0.051  1.00  0.00     0.131 A 
HETATM    7  O   LIG     1      -4.192  -0.495  -0.151  1.00  0.00    -0.190 OA
ENDROOT
BRANCH   1   8
HETATM    8  N   LIG     1       1.325   0.380   0.655  1.00  0.00    -0.212 NA
HETATM    9  C   LIG     1       2.377  -0.166  -0.156  1.00  0.00     0.256 C 
HETATM   10  O   LIG     1       2.143  -1.099  -0.971  1.00  0.00    -0.270 OA
HETATM   11  C   LIG     1       3.782   0.306   0.033  1.00  0.00     0.100 C 
ENDBRANCH   1   8
TORSDOF 1
