REMARK  4 active torsions:
REMARK  status: ('A' for Active; 'I' for Inactive)
REMARK    1  A    between atoms: C_2  and  C_6 
REMARK    2  A    between atoms: C_2  and  O_3 
REMARK    3  A    between atoms: O_3  and  C_4 
REMARK    4  A    between atoms: C_7  and  C_8 
ROOT
HETATM    1  C   LIG     1       0.401   1.153  -1.364  1.00  0.00     0.068 C 
HETATM    2  C   LIG     1      -0.935   1.286  -1.391  1.00  0.00     0.005 C 
ENDROOT
BRANCH   2   3
HETATM    3  C   LIG     1      -1.882   0.608  -0.481  1.00  0.00     0.000 A 
HETATM    4  C   LIG     1      -2.932   1.343   0.090  1.00  0.00     0.000 A 
HETATM    5  C   LIG     1      -3.868   0.712   0.916  1.00  0.00     0.000 A 
HETATM    6  C   LIG     1      -3.774  -0.661   1.159  1.00  0.00     0.000 A 
HETATM    7  C   LIG     1      -2.749  -1.407   0.570  1.00  0.00     0.000 A 
HETATM    8  C   LIG     1      -1.812  -0.779  -0.257  1.00  0.00     0.000 A 
ENDBRANCH   2   3
BRANCH   1   9
HETATM    9  C   LIG     1       1.176   0.459  -0.318  1.00  0.00     0.296 C 
HETATM   10  O   LIG     1       0.679   0.234   0.820  1.00  0.00    -0.259 OA
BRANCH   9  11
HETATM   11  O   LIG     1       2.501   0.109  -0.589  1.00  0.00    -0.298 OA
BRANCH  11  12
HETATM   12  C   LIG     1       3.333  -0.546   0.364  1.00  0.00     0.152 C 
HETATM   13  C   LIG     1       4.706  -0.791  -0.242  1.00  0.00     0.035 C 
ENDBRANCH  11  12
ENDBRANCH   9  11
ENDBRANCH   1   9
TORSDOF 4
