REMARK  2 active torsions:
REMARK  status: ('A' for Active; 'I' for Inactive)
REMARK    1  A    between atoms: C_2  and  N_3 
REMARK    2  A    between atoms: N_3  and  C_4 
ROOT
HETATM    1  C   LIG     1       0.401  -0.268  -0.123  1.00  0.00     0.085 A 
HETATM    2  C   LIG     1      -0.494  -1.316   0.150  1.00  0.00     0.019 A 
HETATM    3  C   LIG     1      -1.861  -1.060   0.297  1.00  0.00     0.002 A 
HETATM    4  C   LIG     1      -2.348   0.242   0.159  1.00  0.00     0.000 A 
HETATM    5  C   LIG     1      -1.471   1.288  -0.137  1.00  0.00     0.002 A 
HETATM    6  C   LIG     1      -0.103   1.037  -0.284  1.00  0.00     0.019 A 
ENDROOT
BRANCH   1   7
HETATM    7  N   LIG     1       1.798  -0.562  -0.293  1.00  0.00    -0.204 NA
BRANCH   7   8
HETATM    8  C   LIG     1       2.862   0.326   0.072  1.00  0.00     0.337 C 
HETATM    9  O   LIG     1       2.644   1.368   0.745  1.00  0.00    -0.260 OA
ENDBRANCH   7   8
ENDBRANCH   1   7
TORSDOF 2
