REMARK  1 active torsions:
REMARK  status: ('A' for Active; 'I' for Inactive)
REMARK       I    between atoms: C_2  and  N_3 
REMARK    1  A    between atoms: N_3  and  C_4 
ROOT
HETATM    1  C   LIG     1      -0.174  -0.492   0.381  1.00  0.00     0.084 A 
HETATM    2  C   LIG     1      -0.719  -0.273  -0.895  1.00  0.00     0.019 A 
HETATM    3  C   LIG     1      -1.932   0.409  -1.035  1.00  0.00     0.002 A 
HETATM    4  C   LIG     1      -2.615   0.862   0.097  1.00  0.00     0.000 A 
HETATM    5  C   LIG     1      -2.092   0.622   1.371  1.00  0.00     0.002 A 
HETATM    6  C   LIG     1      -0.880  -0.061   1.513  1.00  0.00     0.019 A 
ENDROOT
BRANCH   1   7
HETATM    7  N   LIG     1       1.054  -1.216   0.544  1.00  0.00    -0.212 NA
HETATM    8  C   LIG     1       2.277  -0.888  -0.134  1.00  0.00     0.256 C 
HETATM    9  C   LIG     1       2.453   0.410  -0.865  1.00  0.00     0.100 C 
HETATM   10  O   LIG     1       3.251  -1.683  -0.058  1.00  0.00    -0.270 OA
ENDBRANCH   1   7
TORSDOF 1
