REMARK  1 active torsions:
REMARK  status: ('A' for Active; 'I' for Inactive)
REMARK       I    between atoms: C_2  and  N_3 
REMARK    1  A    between atoms: N_3  and  C_4 
ROOT
HETATM    1  C   LIG     1       0.287   0.120  -0.262  1.00  0.00     0.084 A 
HETATM    2  C   LIG     1       0.812  -0.924   0.522  1.00  0.00     0.020 A 
HETATM    3  C   LIG     1       2.196  -1.078   0.657  1.00  0.00     0.008 A 
HETATM    4  C   LIG     1       3.067  -0.203   0.001  1.00  0.00     0.035 A 
HETATM    5 BR   LIG     1       4.956  -0.418   0.184  1.00  0.00    -0.049 Br
HETATM    6  C   LIG     1       2.553   0.823  -0.798  1.00  0.00     0.008 A 
HETATM    7  C   LIG     1       1.171   0.979  -0.935  1.00  0.00     0.020 A 
ENDROOT
BRANCH   1   8
HETATM    8  N   LIG     1      -1.130   0.288  -0.438  1.00  0.00    -0.212 NA
HETATM    9  C   LIG     1      -2.107   0.017   0.579  1.00  0.00     0.256 C 
HETATM   10  C   LIG     1      -3.560   0.028   0.231  1.00  0.00     0.100 C 
HETATM   11  O   LIG     1      -1.756  -0.196   1.771  1.00  0.00    -0.270 OA
ENDBRANCH   1   8
TORSDOF 1
