REMARK  2 active torsions:
REMARK  status: ('A' for Active; 'I' for Inactive)
REMARK    1  A    between atoms: C_2  and  O_3 
REMARK    2  A    between atoms: O_3  and  C_4 
ROOT
HETATM    1  C   LIG     1       0.362  -0.178  -0.228  1.00  0.00     0.094 A 
HETATM    2  C   LIG     1       0.814   0.561   0.884  1.00  0.00     0.024 A 
HETATM    3  C   LIG     1       2.184   0.663   1.150  1.00  0.00     0.002 A 
HETATM    4  C   LIG     1       3.110   0.033   0.315  1.00  0.00     0.000 A 
HETATM    5  C   LIG     1       2.668  -0.701  -0.788  1.00  0.00     0.002 A 
HETATM    6  C   LIG     1       1.300  -0.806  -1.058  1.00  0.00     0.024 A 
ENDROOT
BRANCH   1   7
HETATM    7  O   LIG     1      -0.999  -0.312  -0.539  1.00  0.00    -0.331 OA
BRANCH   7   8
HETATM    8  C   LIG     1      -2.059   0.270   0.215  1.00  0.00     0.149 C 
HETATM    9  C   LIG     1      -3.392  -0.089  -0.421  1.00  0.00     0.035 C 
ENDBRANCH   7   8
ENDBRANCH   1   7
TORSDOF 2
