REMARK  2 active torsions:
REMARK  status: ('A' for Active; 'I' for Inactive)
REMARK    1  A    between atoms: C_2  and  C_3 
REMARK    2  A    between atoms: C_3  and  C_4 
ROOT
HETATM    1  C   LIG     1      -0.013  -0.321  -0.520  1.00  0.00    -0.011 A 
HETATM    2  C   LIG     1      -1.031  -1.147  -0.014  1.00  0.00    -0.004 A 
HETATM    3  C   LIG     1      -2.271  -0.604   0.337  1.00  0.00    -0.000 A 
HETATM    4  C   LIG     1      -2.504   0.766   0.185  1.00  0.00    -0.000 A 
HETATM    5  C   LIG     1      -1.498   1.595  -0.317  1.00  0.00    -0.000 A 
HETATM    6  C   LIG     1      -0.257   1.056  -0.670  1.00  0.00    -0.004 A 
ENDROOT
BRANCH   1   7
HETATM    7  C   LIG     1       1.324  -0.898  -0.899  1.00  0.00     0.124 C 
BRANCH   7   8
HETATM    8  C   LIG     1       2.372  -0.471   0.079  1.00  0.00     0.190 C 
HETATM    9  O   LIG     1       3.160   0.643  -0.191  1.00  0.00    -0.647 OA
HETATM   10  O   LIG     1       2.517  -1.098   1.162  1.00  0.00    -0.647 OA
ENDBRANCH   7   8
ENDBRANCH   1   7
TORSDOF 2
