REMARK  3 active torsions:
REMARK  status: ('A' for Active; 'I' for Inactive)
REMARK    1  A    between atoms: C_1  and  C_2 
REMARK    2  A    between atoms: C_2  and  C_3 
REMARK    3  A    between atoms: C_3  and  C_4 
ROOT
HETATM    1  C   LIG     1      -0.528   0.479   0.611  1.00  0.00     0.031 C 
ENDROOT
BRANCH   1   2
HETATM    2  C   LIG     1      -1.955   0.088   0.331  1.00  0.00    -0.022 A 
HETATM    3  C   LIG     1      -2.703   0.780  -0.637  1.00  0.00    -0.004 A 
HETATM    4  C   LIG     1      -4.017   0.394  -0.919  1.00  0.00    -0.000 A 
HETATM    5  C   LIG     1      -4.590  -0.688  -0.245  1.00  0.00    -0.000 A 
HETATM    6  C   LIG     1      -3.848  -1.389   0.710  1.00  0.00    -0.000 A 
HETATM    7  C   LIG     1      -2.533  -1.007   0.995  1.00  0.00    -0.004 A 
ENDBRANCH   1   2
BRANCH   1   8
HETATM    8  C   LIG     1       0.430  -0.280  -0.319  1.00  0.00     0.031 C 
BRANCH   8   9
HETATM    9  C   LIG     1       1.903   0.030  -0.133  1.00  0.00    -0.022 A 
HETATM   10  C   LIG     1       2.393   0.949   0.822  1.00  0.00    -0.004 A 
HETATM   11  C   LIG     1       3.766   1.184   0.938  1.00  0.00    -0.000 A 
HETATM   12  C   LIG     1       4.667   0.513   0.109  1.00  0.00    -0.000 A 
HETATM   13  C   LIG     1       4.196  -0.398  -0.839  1.00  0.00    -0.000 A 
HETATM   14  C   LIG     1       2.824  -0.638  -0.960  1.00  0.00    -0.004 A 
ENDBRANCH   8   9
ENDBRANCH   1   8
TORSDOF 3
