REMARK  2 active torsions:
REMARK  status: ('A' for Active; 'I' for Inactive)
REMARK    1  A    between atoms: C_2  and  N_3 
REMARK    2  A    between atoms: N_3  and  C_4 
ROOT
HETATM    1  C   LIG     1      -0.278   0.534  -0.073  1.00  0.00     0.076 A 
HETATM    2  C   LIG     1      -0.706  -0.711  -0.575  1.00  0.00     0.019 A 
HETATM    3  C   LIG     1      -2.036  -1.115  -0.421  1.00  0.00     0.002 A 
HETATM    4  C   LIG     1      -2.952  -0.284   0.227  1.00  0.00     0.000 A 
HETATM    5  C   LIG     1      -2.540   0.955   0.722  1.00  0.00     0.002 A 
HETATM    6  C   LIG     1      -1.212   1.364   0.570  1.00  0.00     0.019 A 
ENDROOT
BRANCH   1   7
HETATM    7  N   LIG     1       1.082   0.990  -0.218  1.00  0.00    -0.271 NA
BRANCH   7   8
HETATM    8  C   LIG     1       2.195   0.161  -0.681  1.00  0.00     0.126 C 
HETATM    9  C   LIG     1       2.585  -0.865   0.379  1.00  0.00     0.028 C 
ENDBRANCH   7   8
ENDBRANCH   1   7
TORSDOF 2
