REMARK  2 active torsions:
REMARK  status: ('A' for Active; 'I' for Inactive)
REMARK    1  A    between atoms: C_2  and  N_3 
REMARK    2  A    between atoms: N_3  and  C_4 
ROOT
HETATM    1  C   LIG     1      -0.060  -0.535   0.032  1.00  0.00     0.084 A 
HETATM    2  C   LIG     1      -0.762  -1.030   1.143  1.00  0.00     0.019 A 
HETATM    3  C   LIG     1      -1.913  -0.380   1.599  1.00  0.00     0.001 A 
HETATM    4  C   LIG     1      -2.381   0.760   0.941  1.00  0.00     0.000 A 
HETATM    5  C   LIG     1      -1.703   1.248  -0.179  1.00  0.00     0.001 A 
HETATM    6  C   LIG     1      -0.552   0.601  -0.639  1.00  0.00     0.019 A 
ENDROOT
BRANCH   1   7
HETATM    7  N   LIG     1       1.104  -1.235  -0.438  1.00  0.00    -0.221 NA
BRANCH   7   8
HETATM    8  C   LIG     1       2.206  -0.603  -1.105  1.00  0.00     0.207 C 
HETATM    9  N   LIG     1       2.559   0.754  -0.820  1.00  0.00    -0.068 NA
HETATM   10  S   LIG     1       3.181  -1.498  -2.068  1.00  0.00    -0.043 SA
ENDBRANCH   7   8
ENDBRANCH   1   7
TORSDOF 2
