REMARK  2 active torsions:
REMARK  status: ('A' for Active; 'I' for Inactive)
REMARK    1  A    between atoms: C_1  and  N_2 
REMARK    2  A    between atoms: N_3  and  C_4 
ROOT
HETATM    1  N   LIG     1      -0.549  -1.816   1.459  1.00  0.00    -0.148 NA
HETATM    2  N   LIG     1       0.688  -1.576   1.681  1.00  0.00    -0.148 NA
ENDROOT
BRANCH   1   3
HETATM    3  C   LIG     1      -1.420  -1.039   0.621  1.00  0.00     0.103 A 
HETATM    4  C   LIG     1      -2.334  -1.701  -0.210  1.00  0.00     0.021 A 
HETATM    5  C   LIG     1      -3.219  -0.969  -1.009  1.00  0.00     0.002 A 
HETATM    6  C   LIG     1      -3.211   0.428  -0.965  1.00  0.00     0.000 A 
HETATM    7  C   LIG     1      -2.325   1.095  -0.113  1.00  0.00     0.002 A 
HETATM    8  C   LIG     1      -1.440   0.366   0.688  1.00  0.00     0.021 A 
ENDBRANCH   1   3
BRANCH   2   9
HETATM    9  C   LIG     1       1.487  -0.587   1.010  1.00  0.00     0.103 A 
HETATM   10  C   LIG     1       2.397   0.173   1.756  1.00  0.00     0.021 A 
HETATM   11  C   LIG     1       3.213   1.117   1.124  1.00  0.00     0.002 A 
HETATM   12  C   LIG     1       3.140   1.289  -0.262  1.00  0.00     0.000 A 
HETATM   13  C   LIG     1       2.260   0.509  -1.017  1.00  0.00     0.002 A 
HETATM   14  C   LIG     1       1.443  -0.435  -0.387  1.00  0.00     0.021 A 
ENDBRANCH   2   9
TORSDOF 2
