REMARK  2 active torsions:
REMARK  status: ('A' for Active; 'I' for Inactive)
REMARK    1  A    between atoms: C_2  and  C_3 
REMARK    2  A    between atoms: C_3  and  C_4 
ROOT
HETATM    1  C   LIG     1      -0.398  -0.447   0.443  1.00  0.00    -0.022 A 
HETATM    2  C   LIG     1      -0.799   0.452   1.446  1.00  0.00    -0.004 A 
HETATM    3  C   LIG     1      -1.962   1.212   1.288  1.00  0.00    -0.000 A 
HETATM    4  C   LIG     1      -2.734   1.078   0.131  1.00  0.00    -0.000 A 
HETATM    5  C   LIG     1      -2.345   0.182  -0.869  1.00  0.00    -0.000 A 
HETATM    6  C   LIG     1      -1.183  -0.580  -0.715  1.00  0.00    -0.004 A 
ENDROOT
BRANCH   1   7
HETATM    7  C   LIG     1       0.857  -1.268   0.615  1.00  0.00     0.026 C 
BRANCH   7   8
HETATM    8  C   LIG     1       2.127  -0.406   0.561  1.00  0.00     0.004 C 
HETATM    9  C   LIG     1       2.348   0.213  -0.819  1.00  0.00     0.000 C 
ENDBRANCH   7   8
ENDBRANCH   1   7
TORSDOF 2
