REMARK  3 active torsions:
REMARK  status: ('A' for Active; 'I' for Inactive)
REMARK    1  A    between atoms: C_2  and  C_3 
REMARK    2  A    between atoms: C_3  and  C_4 
REMARK    3  A    between atoms: C_4  and  C_5 
ROOT
HETATM    1  C   LIG     1      -1.105  -0.419  -0.340  1.00  0.00    -0.022 A 
HETATM    2  C   LIG     1      -1.416   0.392  -1.445  1.00  0.00    -0.004 A 
HETATM    3  C   LIG     1      -2.702   0.922  -1.592  1.00  0.00    -0.000 A 
HETATM    4  C   LIG     1      -3.687   0.643  -0.641  1.00  0.00    -0.000 A 
HETATM    5  C   LIG     1      -3.389  -0.167   0.458  1.00  0.00    -0.000 A 
HETATM    6  C   LIG     1      -2.104  -0.698   0.609  1.00  0.00    -0.004 A 
ENDROOT
BRANCH   1   7
HETATM    7  C   LIG     1       0.280  -0.993  -0.185  1.00  0.00     0.026 C 
BRANCH   7   8
HETATM    8  C   LIG     1       1.292   0.102   0.172  1.00  0.00     0.004 C 
BRANCH   8   9
HETATM    9  C   LIG     1       2.696  -0.485   0.355  1.00  0.00     0.000 C 
HETATM   10  C   LIG     1       3.707   0.603   0.709  1.00  0.00     0.000 C 
ENDBRANCH   8   9
ENDBRANCH   7   8
ENDBRANCH   1   7
TORSDOF 3
