REMARK  2 active torsions:
REMARK  status: ('A' for Active; 'I' for Inactive)
REMARK    1  A    between atoms: C_2  and  C_4 
REMARK    2  A    between atoms: C_5  and  C_6 
ROOT
HETATM    1  C   LIG     1       0.478  -0.497   0.143  1.00  0.00     0.102 A 
HETATM    2  C   LIG     1       1.641  -0.774   0.826  1.00  0.00     0.120 A 
HETATM    3  N   LIG     1       2.608   0.017   0.337  1.00  0.00    -0.221 NA
HETATM    4  C   LIG     1       2.023   0.739  -0.637  1.00  0.00     0.199 A 
HETATM    5  N   LIG     1       0.716   0.443  -0.795  1.00  0.00    -0.223 NA
ENDROOT
BRANCH   1   6
HETATM    6  C   LIG     1      -0.795  -1.223   0.317  1.00  0.00     0.027 C 
HETATM    7  C   LIG     1      -2.007  -0.772  -0.039  1.00  0.00     0.072 C 
BRANCH   7   8
HETATM    8  C   LIG     1      -2.322   0.606  -0.456  1.00  0.00     0.211 C 
HETATM    9  O   LIG     1      -3.341   0.815  -1.165  1.00  0.00    -0.644 OA
HETATM   10  O   LIG     1      -1.564   1.685  -0.010  1.00  0.00    -0.644 OA
ENDBRANCH   7   8
ENDBRANCH   1   6
TORSDOF 2
