REMARK  5 active torsions:
REMARK  status: ('A' for Active; 'I' for Inactive)
REMARK    1  A    between atoms: C_2  and  C_3 
REMARK    2  A    between atoms: C_3  and  C_4 
REMARK    3  A    between atoms: C_3  and  C_6 
REMARK    4  A    between atoms: C_6  and  C_7 
REMARK    5  A    between atoms: C_7  and  C_8 
ROOT
HETATM    1  C   LIG     1      -1.062  -0.039  -0.917  1.00  0.00     0.039 C 
ENDROOT
BRANCH   1   2
HETATM    2  C   LIG     1      -0.479  -1.423  -1.301  1.00  0.00     0.338 C 
HETATM    3  N   LIG     1      -1.509  -2.373  -1.725  1.00  0.00     0.618 N 
ENDBRANCH   1   2
BRANCH   1   4
HETATM    4  C   LIG     1      -1.958  -0.132   0.348  1.00  0.00     0.002 C 
HETATM    5  C   LIG     1      -2.524   1.216   0.799  1.00  0.00     0.000 C 
ENDBRANCH   1   4
BRANCH   1   6
HETATM    6  C   LIG     1       0.065   1.026  -0.817  1.00  0.00     0.002 C 
BRANCH   6   7
HETATM    7  C   LIG     1       1.108   0.788   0.300  1.00  0.00     0.000 C 
BRANCH   7   8
HETATM    8  C   LIG     1       2.423   0.211  -0.243  1.00  0.00     0.000 C 
HETATM    9  C   LIG     1       3.431  -0.018   0.881  1.00  0.00     0.000 C 
ENDBRANCH   7   8
ENDBRANCH   6   7
ENDBRANCH   1   6
TORSDOF 5
