REMARK  5 active torsions:
REMARK  status: ('A' for Active; 'I' for Inactive)
REMARK    1  A    between atoms: C_2  and  C_3 
REMARK    2  A    between atoms: C_3  and  C_4 
REMARK    3  A    between atoms: C_3  and  C_6 
REMARK    4  A    between atoms: C_6  and  C_7 
REMARK    5  A    between atoms: C_7  and  C_8 
ROOT
HETATM    1  C   LIG     1      -1.014  -0.055  -0.006  1.00  0.00     0.033 C 
ENDROOT
BRANCH   1   2
HETATM    2  C   LIG     1      -1.660   1.155  -0.722  1.00  0.00     0.182 C 
HETATM    3  O   LIG     1      -1.239   2.352  -0.127  1.00  0.00    -0.221 OA
ENDBRANCH   1   2
BRANCH   1   4
HETATM    4  C   LIG     1      -1.843  -1.343  -0.243  1.00  0.00     0.003 C 
HETATM    5  C   LIG     1      -3.108  -1.404   0.617  1.00  0.00     0.000 C 
ENDBRANCH   1   4
BRANCH   1   6
HETATM    6  C   LIG     1       0.445  -0.290  -0.479  1.00  0.00     0.003 C 
BRANCH   6   7
HETATM    7  C   LIG     1       1.393   0.875  -0.142  1.00  0.00     0.000 C 
BRANCH   7   8
HETATM    8  C   LIG     1       2.862   0.550  -0.460  1.00  0.00     0.000 C 
HETATM    9  C   LIG     1       3.502  -0.374   0.576  1.00  0.00     0.000 C 
ENDBRANCH   7   8
ENDBRANCH   6   7
ENDBRANCH   1   6
TORSDOF 5
