REMARK  2 active torsions:
REMARK  status: ('A' for Active; 'I' for Inactive)
REMARK    1  A    between atoms: C_3  and  C_4 
REMARK    2  A    between atoms: C_7  and  O_8 
ROOT
HETATM    1  C   LIG     1       0.893  -0.555  -0.251  1.00  0.00    -0.000 A 
HETATM    2  C   LIG     1      -0.029  -0.244  -1.260  1.00  0.00     0.002 A 
HETATM    3  C   LIG     1      -1.373  -0.018  -0.947  1.00  0.00     0.024 A 
HETATM    4  C   LIG     1      -1.818  -0.121   0.385  1.00  0.00     0.094 A 
HETATM    5  C   LIG     1      -0.901  -0.461   1.385  1.00  0.00     0.024 A 
HETATM    6  C   LIG     1       0.443  -0.686   1.072  1.00  0.00     0.002 A 
ENDROOT
BRANCH   1   7
HETATM    7  C   LIG     1       2.300  -0.816  -0.616  1.00  0.00    -0.005 C 
HETATM    8  C   LIG     1       3.353  -0.197  -0.065  1.00  0.00    -0.026 C 
HETATM    9  C   LIG     1       3.246   0.879   0.973  1.00  0.00     0.031 C 
ENDBRANCH   1   7
BRANCH   4  10
HETATM   10  O   LIG     1      -3.154   0.097   0.751  1.00  0.00    -0.328 OA
HETATM   11  C   LIG     1      -4.191   0.446  -0.161  1.00  0.00     0.181 C 
ENDBRANCH   4  10
TORSDOF 2
