REMARK  4 active torsions:
REMARK  status: ('A' for Active; 'I' for Inactive)
REMARK    1  A    between atoms: C_2  and  C_3 
REMARK    2  A    between atoms: C_3  and  C_4 
REMARK    3  A    between atoms: C_4  and  O_5 
REMARK    4  A    between atoms: O_5  and  C_6 
ROOT
HETATM    1  C   LIG     1      -0.385  -0.597  -0.707  1.00  0.00     0.272 C 
HETATM    2  O   LIG     1      -1.067  -0.991  -1.691  1.00  0.00    -0.264 OA
ENDROOT
BRANCH   1   3
HETATM    3  C   LIG     1       1.109  -0.532  -0.837  1.00  0.00     0.096 C 
BRANCH   3   4
HETATM    4  C   LIG     1       1.790  -0.030   0.443  1.00  0.00     0.010 C 
HETATM    5  C   LIG     1       3.305   0.026   0.275  1.00  0.00     0.001 C 
ENDBRANCH   3   4
ENDBRANCH   1   3
BRANCH   1   6
HETATM    6  O   LIG     1      -1.014  -0.232   0.492  1.00  0.00    -0.302 OA
BRANCH   6   7
HETATM    7  C   LIG     1      -2.430  -0.219   0.664  1.00  0.00     0.152 C 
HETATM    8  C   LIG     1      -3.044   0.997  -0.021  1.00  0.00     0.035 C 
ENDBRANCH   6   7
ENDBRANCH   1   6
TORSDOF 4
