REMARK  3 active torsions:
REMARK  status: ('A' for Active; 'I' for Inactive)
REMARK    1  A    between atoms: C_2  and  C_5 
REMARK    2  A    between atoms: C_2  and  C_3 
REMARK    3  A    between atoms: C_5  and  C_6 
ROOT
HETATM    1  C   LIG     1       1.071   0.820  -1.382  1.00  0.00     0.003 C 
HETATM    2  C   LIG     1       0.912  -0.140  -0.191  1.00  0.00     0.033 C 
ENDROOT
BRANCH   2   3
HETATM    3  C   LIG     1      -0.434   0.075   0.539  1.00  0.00     0.003 C 
BRANCH   3   4
HETATM    4  C   LIG     1      -1.647  -0.332  -0.313  1.00  0.00     0.000 C 
HETATM    5  C   LIG     1      -2.938  -0.261   0.498  1.00  0.00     0.000 C 
ENDBRANCH   3   4
ENDBRANCH   2   3
BRANCH   2   6
HETATM    6  C   LIG     1       2.079   0.040   0.802  1.00  0.00     0.182 C 
HETATM    7  O   LIG     1       3.307  -0.263   0.196  1.00  0.00    -0.221 OA
ENDBRANCH   2   6
TORSDOF 3
