REMARK  5 active torsions:
REMARK  status: ('A' for Active; 'I' for Inactive)
REMARK    1  A    between atoms: C_2  and  C_3 
REMARK    2  A    between atoms: C_3  and  C_4 
REMARK    3  A    between atoms: C_4  and  O_5 
REMARK    4  A    between atoms: O_5  and  C_6 
REMARK    5  A    between atoms: C_6  and  C_7 
ROOT
HETATM    1  C   LIG     1      -0.395  -0.204   0.237  1.00  0.00     0.272 C 
HETATM    2  O   LIG     1      -0.092  -1.091   1.081  1.00  0.00    -0.264 OA
ENDROOT
BRANCH   1   3
HETATM    3  C   LIG     1      -1.792  -0.132  -0.297  1.00  0.00     0.096 C 
BRANCH   3   4
HETATM    4  C   LIG     1      -2.785   0.213   0.818  1.00  0.00     0.010 C 
HETATM    5  C   LIG     1      -4.208   0.311   0.276  1.00  0.00     0.001 C 
ENDBRANCH   3   4
ENDBRANCH   1   3
BRANCH   1   6
HETATM    6  O   LIG     1       0.561   0.714  -0.212  1.00  0.00    -0.302 OA
BRANCH   6   7
HETATM    7  C   LIG     1       1.925   0.692   0.203  1.00  0.00     0.152 C 
BRANCH   7   8
HETATM    8  C   LIG     1       2.685  -0.431  -0.508  1.00  0.00     0.033 C 
HETATM    9  C   LIG     1       4.159  -0.436  -0.115  1.00  0.00     0.003 C 
ENDBRANCH   7   8
ENDBRANCH   6   7
ENDBRANCH   1   6
TORSDOF 5
