REMARK  2 active torsions:
REMARK  status: ('A' for Active; 'I' for Inactive)
REMARK    1  A    between atoms: C_2  and  C_3 
REMARK    2  A    between atoms: C_6  and  C_7 
ROOT
HETATM    1  C   LIG     1      -1.300   0.503  -0.238  1.00  0.00    -0.022 A 
HETATM    2  C   LIG     1      -0.565   0.970   0.865  1.00  0.00    -0.004 A 
HETATM    3  C   LIG     1       0.726   0.491   1.107  1.00  0.00    -0.004 A 
HETATM    4  C   LIG     1       1.300  -0.465   0.254  1.00  0.00    -0.022 A 
HETATM    5  C   LIG     1       0.574  -0.917  -0.858  1.00  0.00    -0.004 A 
HETATM    6  C   LIG     1      -0.717  -0.440  -1.101  1.00  0.00    -0.004 A 
ENDROOT
BRANCH   1   7
HETATM    7  C   LIG     1      -2.689   1.021  -0.506  1.00  0.00     0.026 C 
HETATM    8  C   LIG     1      -3.738  -0.059  -0.256  1.00  0.00     0.004 C 
ENDBRANCH   1   7
BRANCH   4   9
HETATM    9  C   LIG     1       2.702  -0.954   0.496  1.00  0.00     0.026 C 
HETATM   10  C   LIG     1       3.715  -0.066  -0.219  1.00  0.00     0.004 C 
ENDBRANCH   4   9
TORSDOF 2
