REMARK  4 active torsions:
REMARK  status: ('A' for Active; 'I' for Inactive)
REMARK    1  A    between atoms: C_2  and  N_3 
REMARK    2  A    between atoms: C_2  and  N_6 
REMARK    3  A    between atoms: N_3  and  C_4 
REMARK    4  A    between atoms: N_6  and  C_7 
ROOT
HETATM    1  S   LIG     1       0.047  -1.721  -1.555  1.00  0.00    -0.037 SA
HETATM    2  C   LIG     1       0.012  -0.449  -0.508  1.00  0.00     0.212 C 
ENDROOT
BRANCH   2   3
HETATM    3  N   LIG     1       1.234   0.106   0.008  1.00  0.00    -0.244 NA
BRANCH   3   4
HETATM    4  C   LIG     1       2.558  -0.408  -0.353  1.00  0.00     0.128 C 
HETATM    5  C   LIG     1       3.660   0.379   0.348  1.00  0.00     0.029 C 
ENDBRANCH   3   4
ENDBRANCH   2   3
BRANCH   2   6
HETATM    6  N   LIG     1      -1.241   0.123  -0.096  1.00  0.00    -0.244 NA
BRANCH   6   7
HETATM    7  C   LIG     1      -2.537  -0.372  -0.565  1.00  0.00     0.128 C 
HETATM    8  C   LIG     1      -3.683   0.431   0.042  1.00  0.00     0.029 C 
ENDBRANCH   6   7
ENDBRANCH   2   6
TORSDOF 4
