REMARK  0 active torsions:
REMARK  status: ('A' for Active; 'I' for Inactive)
ROOT
HETATM    1  O   LIG     1       1.871  -2.139   0.746  1.00  0.00    -0.191 OA
HETATM    2  C   LIG     1       0.861  -1.281   0.304  1.00  0.00     0.127 A 
HETATM    3  C   LIG     1      -0.246  -1.839  -0.344  1.00  0.00     0.027 A 
HETATM    4  C   LIG     1      -1.282  -1.026  -0.806  1.00  0.00    -0.002 A 
HETATM    5  C   LIG     1      -1.219   0.363  -0.637  1.00  0.00    -0.022 A 
HETATM    6  C   LIG     1      -2.351   1.233  -1.098  1.00  0.00     0.031 C 
HETATM    7  C   LIG     1      -0.121   0.928   0.029  1.00  0.00    -0.006 A 
HETATM    8  C   LIG     1       0.928   0.117   0.498  1.00  0.00     0.003 A 
HETATM    9  C   LIG     1       2.099   0.750   1.199  1.00  0.00     0.033 C 
ENDROOT
TORSDOF 0
