REMARK  3 active torsions:
REMARK  status: ('A' for Active; 'I' for Inactive)
REMARK    1  A    between atoms: C_2  and  C_3 
REMARK    2  A    between atoms: C_2  and  O_5 
REMARK    3  A    between atoms: O_5  and  C_6 
ROOT
HETATM    1  O   LIG     1      -0.529  -0.028  -2.053  1.00  0.00    -0.264 OA
HETATM    2  C   LIG     1      -0.504   0.394  -0.865  1.00  0.00     0.272 C 
ENDROOT
BRANCH   2   3
HETATM    3  C   LIG     1      -1.673   1.151  -0.320  1.00  0.00     0.096 C 
HETATM    4  C   LIG     1      -2.654   0.204   0.362  1.00  0.00     0.011 C 
ENDBRANCH   2   3
BRANCH   2   5
HETATM    5  O   LIG     1       0.587   0.124  -0.035  1.00  0.00    -0.302 OA
BRANCH   5   6
HETATM    6  C   LIG     1       1.723  -0.613  -0.476  1.00  0.00     0.152 C 
HETATM    7  C   LIG     1       2.726  -0.732   0.660  1.00  0.00     0.035 C 
ENDBRANCH   5   6
ENDBRANCH   2   5
TORSDOF 3
