REMARK  6 active torsions:
REMARK  status: ('A' for Active; 'I' for Inactive)
REMARK    1  A    between atoms: C_2  and  C_6 
REMARK    2  A    between atoms: C_2  and  O_3 
REMARK    3  A    between atoms: O_3  and  C_4 
REMARK    4  A    between atoms: C_6  and  C_7 
REMARK    5  A    between atoms: C_7  and  O_8 
REMARK    6  A    between atoms: O_8  and  C_9 
ROOT
HETATM    1  C   LIG     1       0.013   1.248   0.161  1.00  0.00     0.191 C 
ENDROOT
BRANCH   1   2
HETATM    2  C   LIG     1       1.272   0.462   0.335  1.00  0.00     0.282 C 
HETATM    3  O   LIG     1       1.790   0.356   1.480  1.00  0.00    -0.264 OA
BRANCH   2   4
HETATM    4  O   LIG     1       1.835  -0.188  -0.769  1.00  0.00    -0.301 OA
BRANCH   4   5
HETATM    5  C   LIG     1       3.044  -0.941  -0.705  1.00  0.00     0.152 C 
HETATM    6  C   LIG     1       4.253  -0.015  -0.635  1.00  0.00     0.035 C 
ENDBRANCH   4   5
ENDBRANCH   2   4
ENDBRANCH   1   2
BRANCH   1   7
HETATM    7  C   LIG     1      -1.172   0.337   0.193  1.00  0.00     0.282 C 
HETATM    8  O   LIG     1      -1.466  -0.270   1.260  1.00  0.00    -0.264 OA
BRANCH   7   9
HETATM    9  O   LIG     1      -1.939   0.165  -0.964  1.00  0.00    -0.301 OA
BRANCH   9  10
HETATM   10  C   LIG     1      -3.108  -0.651  -1.017  1.00  0.00     0.152 C 
HETATM   11  C   LIG     1      -4.285   0.052  -0.350  1.00  0.00     0.035 C 
ENDBRANCH   9  10
ENDBRANCH   7   9
ENDBRANCH   1   7
TORSDOF 6
