REMARK  4 active torsions:
REMARK  status: ('A' for Active; 'I' for Inactive)
REMARK    1  A    between atoms: C_2  and  O_6 
REMARK    2  A    between atoms: C_2  and  O_3 
REMARK    3  A    between atoms: O_3  and  C_4 
REMARK    4  A    between atoms: O_6  and  C_7 
ROOT
HETATM    1  C   LIG     1      -0.512  -2.195   1.040  1.00  0.00     0.067 C 
HETATM    2  C   LIG     1      -0.236  -0.708   0.837  1.00  0.00     0.235 C 
ENDROOT
BRANCH   2   3
HETATM    3  O   LIG     1       0.216  -0.503  -0.493  1.00  0.00    -0.331 OA
BRANCH   3   4
HETATM    4  C   LIG     1       1.621  -0.364  -0.528  1.00  0.00     0.145 C 
HETATM    5  C   LIG     1       2.073  -0.232  -1.974  1.00  0.00     0.035 C 
ENDBRANCH   3   4
ENDBRANCH   2   3
BRANCH   2   6
HETATM    6  O   LIG     1      -1.447  -0.006   1.035  1.00  0.00    -0.331 OA
BRANCH   6   7
HETATM    7  C   LIG     1      -1.237   1.396   1.029  1.00  0.00     0.145 C 
HETATM    8  C   LIG     1      -1.869   2.005  -0.216  1.00  0.00     0.035 C 
ENDBRANCH   6   7
ENDBRANCH   2   6
TORSDOF 4
