REMARK  0 active torsions:
REMARK  status: ('A' for Active; 'I' for Inactive)
ROOT
HETATM    1  O   LIG     1      -2.668  -0.063   0.043  1.00  0.00    -0.287 OA
HETATM    2  C   LIG     1      -1.410  -0.033   0.023  1.00  0.00     0.196 A 
HETATM    3  C   LIG     1      -0.639  -1.291  -0.021  1.00  0.00     0.045 A 
HETATM    4  C   LIG     1       0.698  -1.260  -0.043  1.00  0.00     0.045 A 
HETATM    5  C   LIG     1      -0.698   1.260   0.043  1.00  0.00     0.045 A 
HETATM    6  C   LIG     1       0.639   1.291   0.021  1.00  0.00     0.045 A 
HETATM    7  C   LIG     1       1.410   0.033  -0.023  1.00  0.00     0.196 A 
HETATM    8  O   LIG     1       2.668   0.063  -0.043  1.00  0.00    -0.287 OA
ENDROOT
TORSDOF 0
