REMARK  7 active torsions:
REMARK  status: ('A' for Active; 'I' for Inactive)
REMARK    1  A    between atoms: C_2  and  C_3 
REMARK    2  A    between atoms: C_3  and  C_4 
REMARK    3  A    between atoms: C_4  and  C_5 
REMARK    4  A    between atoms: C_5  and  C_6 
REMARK    5  A    between atoms: C_6  and  C_7 
REMARK    6  A    between atoms: C_7  and  O_8 
REMARK    7  A    between atoms: O_8  and  C_9 
ROOT
HETATM    1  C   LIG     1       0.709   0.359   0.418  1.00  0.00     0.096 C 
ENDROOT
BRANCH   1   2
HETATM    2  C   LIG     1      -0.663   0.620  -0.220  1.00  0.00     0.010 C 
BRANCH   2   3
HETATM    3  C   LIG     1      -1.737   0.842   0.856  1.00  0.00     0.001 C 
BRANCH   3   4
HETATM    4  C   LIG     1      -3.137   1.066   0.246  1.00  0.00     0.000 C 
BRANCH   4   5
HETATM    5  C   LIG     1      -4.043  -0.176   0.311  1.00  0.00     0.000 C 
HETATM    6  C   LIG     1      -3.552  -1.321  -0.571  1.00  0.00     0.000 C 
ENDBRANCH   4   5
ENDBRANCH   3   4
ENDBRANCH   2   3
ENDBRANCH   1   2
BRANCH   1   7
HETATM    7  C   LIG     1       1.799   0.146  -0.594  1.00  0.00     0.272 C 
HETATM    8  O   LIG     1       1.553   0.188  -1.832  1.00  0.00    -0.264 OA
BRANCH   7   9
HETATM    9  O   LIG     1       3.097  -0.103  -0.140  1.00  0.00    -0.302 OA
BRANCH   9  10
HETATM   10  C   LIG     1       4.192  -0.317  -1.024  1.00  0.00     0.152 C 
HETATM   11  C   LIG     1       5.458  -0.558  -0.218  1.00  0.00     0.035 C 
ENDBRANCH   9  10
ENDBRANCH   7   9
ENDBRANCH   1   7
TORSDOF 7
