REMARK  0 active torsions:
REMARK  status: ('A' for Active; 'I' for Inactive)
ROOT
HETATM    1  O   LIG     1       2.529   0.383  -0.235  1.00  0.00    -0.190 OA
HETATM    2  C   LIG     1       1.153   0.204  -0.110  1.00  0.00     0.131 A 
HETATM    3  C   LIG     1       0.612  -1.077   0.078  1.00  0.00     0.028 A 
HETATM    4  C   LIG     1      -0.772  -1.242   0.201  1.00  0.00     0.013 A 
HETATM    5  C   LIG     1      -1.619  -0.131   0.137  1.00  0.00     0.058 A 
HETATM    6 CL   LIG     1      -3.354  -0.339   0.292  1.00  0.00    -0.082 Cl
HETATM    7  C   LIG     1      -1.081   1.148  -0.051  1.00  0.00     0.013 A 
HETATM    8  C   LIG     1       0.302   1.314  -0.174  1.00  0.00     0.028 A 
ENDROOT
TORSDOF 0
