REMARK  0 active torsions:
REMARK  status: ('A' for Active; 'I' for Inactive)
ROOT
HETATM    1 BR   LIG     1       3.936   0.057   0.179  1.00  0.00    -0.049 Br
HETATM    2  C   LIG     1       2.028   0.031   0.086  1.00  0.00     0.035 A 
HETATM    3  C   LIG     1       1.299   1.197   0.342  1.00  0.00     0.006 A 
HETATM    4  C   LIG     1      -0.098   1.179   0.275  1.00  0.00    -0.004 A 
HETATM    5  C   LIG     1      -0.775  -0.005  -0.062  1.00  0.00    -0.022 A 
HETATM    6  C   LIG     1      -2.274  -0.035  -0.095  1.00  0.00     0.031 C 
HETATM    7  C   LIG     1      -0.038  -1.176  -0.300  1.00  0.00    -0.004 A 
HETATM    8  C   LIG     1       1.359  -1.155  -0.233  1.00  0.00     0.006 A 
ENDROOT
TORSDOF 0
