REMARK  1 active torsions:
REMARK  status: ('A' for Active; 'I' for Inactive)
REMARK    1  A    between atoms: C_5  and  C_6 
ROOT
HETATM    1  O   LIG     1      -4.591  -0.670  -0.174  1.00  0.00    -0.287 OA
HETATM    2  C   LIG     1      -3.418  -0.271   0.053  1.00  0.00     0.195 A 
HETATM    3  C   LIG     1      -2.798   0.731  -0.818  1.00  0.00     0.041 A 
HETATM    4  C   LIG     1      -1.559   1.167  -0.574  1.00  0.00     0.015 A 
HETATM    5  C   LIG     1      -0.735   0.707   0.616  1.00  0.00     0.185 A 
HETATM    6  C   LIG     1      -1.421  -0.385   1.435  1.00  0.00     0.015 A 
HETATM    7  C   LIG     1      -2.660  -0.815   1.183  1.00  0.00     0.041 A 
HETATM    8  O   LIG     1      -0.559   1.835   1.443  1.00  0.00    -0.212 OA
ENDROOT
BRANCH   5   9
HETATM    9  C   LIG     1       0.607   0.188   0.088  1.00  0.00     0.040 A 
HETATM   10  C   LIG     1       1.807   0.896   0.324  1.00  0.00     0.028 A 
HETATM   11  C   LIG     1       3.030   0.426  -0.171  1.00  0.00     0.131 A 
HETATM   12  C   LIG     1       3.072  -0.751  -0.918  1.00  0.00     0.029 A 
HETATM   13  O   LIG     1       4.211   1.124   0.073  1.00  0.00    -0.190 OA
HETATM   14  C   LIG     1       1.898  -1.454  -1.183  1.00  0.00     0.029 A 
HETATM   15  C   LIG     1       0.667  -0.992  -0.696  1.00  0.00     0.130 A 
HETATM   16  O   LIG     1      -0.496  -1.701  -0.996  1.00  0.00    -0.190 OA
ENDBRANCH   5   9
TORSDOF 1
