REMARK  5 active torsions:
REMARK  status: ('A' for Active; 'I' for Inactive)
REMARK    1  A    between atoms: C_2  and  C_3 
REMARK    2  A    between atoms: C_3  and  C_4 
REMARK    3  A    between atoms: C_4  and  C_5 
REMARK    4  A    between atoms: C_5  and  C_6 
REMARK    5  A    between atoms: C_6  and  O_7 
ROOT
HETATM    1  C   LIG     1       0.567  -0.536   0.667  1.00  0.00     0.096 C 
ENDROOT
BRANCH   1   2
HETATM    2  C   LIG     1      -0.181   0.016  -0.554  1.00  0.00     0.010 C 
BRANCH   2   3
HETATM    3  C   LIG     1      -1.427  -0.812  -0.917  1.00  0.00     0.001 C 
BRANCH   3   4
HETATM    4  C   LIG     1      -2.529  -0.830   0.158  1.00  0.00     0.000 C 
HETATM    5  C   LIG     1      -3.103   0.556   0.450  1.00  0.00     0.000 C 
ENDBRANCH   3   4
ENDBRANCH   2   3
ENDBRANCH   1   2
BRANCH   1   6
HETATM    6  C   LIG     1       1.854   0.200   0.875  1.00  0.00     0.272 C 
HETATM    7  O   LIG     1       2.027   0.877   1.925  1.00  0.00    -0.264 OA
BRANCH   6   8
HETATM    8  O   LIG     1       2.858   0.121  -0.095  1.00  0.00    -0.299 OA
HETATM    9  C   LIG     1       4.103   0.796   0.035  1.00  0.00     0.184 C 
ENDBRANCH   6   8
ENDBRANCH   1   6
TORSDOF 5
