REMARK  0 active torsions:
REMARK  status: ('A' for Active; 'I' for Inactive)
ROOT
ATOM      1  O   GLY A   1      -2.222  -1.433  -0.482  1.00  0.00    -0.268 OA
ATOM      2  C   GLY A   1      -1.185  -0.769  -0.216  1.00  0.00     0.277 C 
ATOM      3  CA  GLY A   1      -1.310   0.598   0.388  1.00  0.00     0.218 C 
ATOM      4  N   GLY A   1      -0.133   1.409   0.091  1.00  0.00    -0.226 NA
ATOM      5  C   GLY A   2       1.164   0.826  -0.080  1.00  0.00     0.277 C 
ATOM      6  CA  GLY A   2       1.335  -0.664  -0.043  1.00  0.00     0.218 C 
ATOM      7  N   GLY A   2       0.107  -1.341  -0.451  1.00  0.00    -0.226 NA
ATOM      8  O   GLY A   2       2.171   1.568  -0.225  1.00  0.00    -0.268 OA
ENDROOT
TORSDOF 0
