REMARK  0 active torsions:
REMARK  status: ('A' for Active; 'I' for Inactive)
ROOT
HETATM    1 BR   LIG     1       3.038   1.278  -0.061  1.00  0.00    -0.049 Br
HETATM    2  C   LIG     1       1.278   0.538  -0.026  1.00  0.00     0.035 A 
HETATM    3  C   LIG     1       1.102  -0.851  -0.019  1.00  0.00     0.008 A 
HETATM    4  C   LIG     1      -0.187  -1.393   0.007  1.00  0.00     0.012 A 
HETATM    5  C   LIG     1      -1.302  -0.548   0.026  1.00  0.00     0.058 A 
HETATM    6 CL   LIG     1      -2.919  -1.228   0.059  1.00  0.00    -0.082 Cl
HETATM    7  C   LIG     1      -1.126   0.841   0.019  1.00  0.00     0.012 A 
HETATM    8  C   LIG     1       0.163   1.383  -0.007  1.00  0.00     0.008 A 
ENDROOT
TORSDOF 0
