REMARK  1 active torsions:
REMARK  status: ('A' for Active; 'I' for Inactive)
REMARK    1  A    between atoms: C_2  and  C_3 
ROOT
HETATM    1  C   LIG     1      -1.273  -0.529  -0.058  1.00  0.00    -0.004 C 
HETATM    2  C   LIG     1      -0.338   0.282   0.445  1.00  0.00    -0.014 C 
ENDROOT
BRANCH   2   3
HETATM    3  C   LIG     1       1.010   0.417  -0.198  1.00  0.00     0.094 C 
HETATM    4 BR   LIG     1       2.020  -1.226  -0.013  1.00  0.00    -0.076 Br
ENDBRANCH   2   3
TORSDOF 1
