REMARK  1 active torsions:
REMARK  status: ('A' for Active; 'I' for Inactive)
REMARK    1  A    between atoms: C_2  and  C_3 
ROOT
HETATM    1  C   LIG     1      -1.461  -0.328  -0.475  1.00  0.00     0.000 C 
HETATM    2  C   LIG     1      -0.791   0.388   0.430  1.00  0.00     0.000 C 
ENDROOT
BRANCH   2   3
HETATM    3  C   LIG     1       0.683   0.429   0.556  1.00  0.00     0.000 C 
HETATM    4  C   LIG     1       1.536  -0.245  -0.217  1.00  0.00     0.000 C 
ENDBRANCH   2   3
TORSDOF 1
