REMARK  0 active torsions:
REMARK  status: ('A' for Active; 'I' for Inactive)
ROOT
HETATM    1 BR   LIG     1      -3.494   0.481   0.023  1.00  0.00    -0.049 Br
HETATM    2  C   LIG     1      -1.607   0.186   0.006  1.00  0.00     0.035 A 
HETATM    3  C   LIG     1      -1.102  -1.110  -0.140  1.00  0.00     0.009 A 
HETATM    4  C   LIG     1       0.280  -1.326  -0.152  1.00  0.00     0.028 A 
HETATM    5  C   LIG     1       1.162  -0.247  -0.018  1.00  0.00     0.131 A 
HETATM    6  O   LIG     1       2.536  -0.475  -0.031  1.00  0.00    -0.190 OA
HETATM    7  C   LIG     1       0.653   1.052   0.129  1.00  0.00     0.028 A 
HETATM    8  C   LIG     1      -0.729   1.267   0.141  1.00  0.00     0.009 A 
ENDROOT
TORSDOF 0
