REMARK  0 active torsions:
REMARK  status: ('A' for Active; 'I' for Inactive)
ROOT
HETATM    1 BR   LIG     1      -3.297   0.291  -0.006  1.00  0.00    -0.049 Br
HETATM    2  C   LIG     1      -1.395   0.123  -0.003  1.00  0.00     0.035 A 
HETATM    3  C   LIG     1      -0.803  -1.145   0.002  1.00  0.00     0.007 A 
HETATM    4  C   LIG     1       0.590  -1.268   0.005  1.00  0.00     0.007 A 
HETATM    5  C   LIG     1       1.395  -0.123   0.003  1.00  0.00     0.035 A 
HETATM    6 BR   LIG     1       3.297  -0.291   0.006  1.00  0.00    -0.049 Br
HETATM    7  C   LIG     1       0.803   1.145  -0.002  1.00  0.00     0.007 A 
HETATM    8  C   LIG     1      -0.590   1.268  -0.005  1.00  0.00     0.007 A 
ENDROOT
TORSDOF 0
