REMARK  4 active torsions:
REMARK  status: ('A' for Active; 'I' for Inactive)
REMARK    1  A    between atoms: C_2  and  C_3 
REMARK    2  A    between atoms: C_2  and  O_5 
REMARK    3  A    between atoms: O_5  and  C_6 
REMARK    4  A    between atoms: C_6  and  C_7 
ROOT
HETATM    1  O   LIG     1       0.809   0.323  -0.094  1.00  0.00    -0.298 OA
ENDROOT
BRANCH   1   2
HETATM    2  C   LIG     1       1.984   1.078  -0.028  1.00  0.00     0.296 C 
HETATM    3  O   LIG     1       1.954   2.274   0.369  1.00  0.00    -0.259 OA
BRANCH   2   4
HETATM    4  C   LIG     1       3.271   0.485  -0.419  1.00  0.00     0.068 C 
HETATM    5  C   LIG     1       3.373  -0.774  -0.840  1.00  0.00     0.006 C 
ENDBRANCH   2   4
ENDBRANCH   1   2
BRANCH   1   6
HETATM    6  C   LIG     1      -0.463   0.843   0.282  1.00  0.00     0.152 C 
BRANCH   6   7
HETATM    7  C   LIG     1      -1.545  -0.232   0.099  1.00  0.00     0.030 C 
HETATM    8  C   LIG     1      -1.286  -1.438   1.012  1.00  0.00     0.003 C 
HETATM    9  C   LIG     1      -2.935   0.355   0.373  1.00  0.00     0.003 C 
ENDBRANCH   6   7
ENDBRANCH   1   6
TORSDOF 4
