REMARK  1 active torsions:
REMARK  status: ('A' for Active; 'I' for Inactive)
REMARK    1  A    between atoms: C_2  and  C_3 
ROOT
HETATM    1 BR   LIG     1       2.004  -0.407  -1.419  1.00  0.00    -0.081 Br
HETATM    2  C   LIG     1       1.219  -0.158   0.339  1.00  0.00     0.068 C 
ENDROOT
BRANCH   2   3
HETATM    3  C   LIG     1      -0.114   0.587   0.259  1.00  0.00     0.012 C 
HETATM    4  C   LIG     1      -1.216  -0.270  -0.362  1.00  0.00     0.001 C 
ENDBRANCH   2   3
TORSDOF 1
