REMARK  0 active torsions:
REMARK  status: ('A' for Active; 'I' for Inactive)
ROOT
HETATM    1 CL   LIG     1       3.115  -0.494   0.040  1.00  0.00    -0.082 Cl
HETATM    2  C   LIG     1       1.383  -0.220   0.018  1.00  0.00     0.058 A 
HETATM    3  C   LIG     1       0.880   1.087   0.026  1.00  0.00     0.012 A 
HETATM    4  C   LIG     1      -0.501   1.306   0.008  1.00  0.00     0.012 A 
HETATM    5  C   LIG     1      -1.383   0.220  -0.018  1.00  0.00     0.058 A 
HETATM    6 CL   LIG     1      -3.115   0.494  -0.040  1.00  0.00    -0.082 Cl
HETATM    7  C   LIG     1      -0.880  -1.087  -0.026  1.00  0.00     0.012 A 
HETATM    8  C   LIG     1       0.501  -1.306  -0.008  1.00  0.00     0.012 A 
ENDROOT
TORSDOF 0
