REMARK  0 active torsions:
REMARK  status: ('A' for Active; 'I' for Inactive)
ROOT
HETATM    1  N   LIG     1      -2.830  -0.159   0.076  1.00  0.00    -0.101 NA
HETATM    2  C   LIG     1      -1.403  -0.079   0.037  1.00  0.00     0.070 A 
HETATM    3  C   LIG     1      -0.765   1.171   0.029  1.00  0.00     0.015 A 
HETATM    4  C   LIG     1       0.630   1.249  -0.008  1.00  0.00     0.015 A 
HETATM    5  C   LIG     1       1.403   0.079  -0.037  1.00  0.00     0.070 A 
HETATM    6  N   LIG     1       2.830   0.159  -0.076  1.00  0.00    -0.101 NA
HETATM    7  C   LIG     1       0.765  -1.171  -0.029  1.00  0.00     0.015 A 
HETATM    8  C   LIG     1      -0.630  -1.249   0.008  1.00  0.00     0.015 A 
ENDROOT
TORSDOF 0
