REMARK  0 active torsions:
REMARK  status: ('A' for Active; 'I' for Inactive)
ROOT
HETATM    1  C   LIG     1       2.264  -0.055  -0.093  1.00  0.00     0.031 C 
HETATM    2  C   LIG     1       0.765  -0.027  -0.031  1.00  0.00    -0.022 A 
HETATM    3  C   LIG     1       0.089   1.202  -0.074  1.00  0.00    -0.003 A 
HETATM    4  C   LIG     1      -1.307   1.241  -0.017  1.00  0.00     0.011 A 
HETATM    5  C   LIG     1      -2.039   0.053   0.083  1.00  0.00     0.058 A 
HETATM    6 CL   LIG     1      -3.791   0.103   0.154  1.00  0.00    -0.082 Cl
HETATM    7  C   LIG     1      -1.371  -1.176   0.127  1.00  0.00     0.011 A 
HETATM    8  C   LIG     1       0.026  -1.218   0.070  1.00  0.00    -0.003 A 
ENDROOT
TORSDOF 0
