REMARK  0 active torsions:
REMARK  status: ('A' for Active; 'I' for Inactive)
ROOT
HETATM    1  O   LIG     1      -3.152  -0.562   0.236  1.00  0.00    -0.190 OA
HETATM    2  C   LIG     1      -1.785  -0.326   0.119  1.00  0.00     0.131 A 
HETATM    3  C   LIG     1      -1.146   0.603   0.953  1.00  0.00     0.027 A 
HETATM    4  C   LIG     1       0.227   0.833   0.826  1.00  0.00    -0.002 A 
HETATM    5  C   LIG     1       0.972   0.145  -0.145  1.00  0.00    -0.022 A 
HETATM    6  C   LIG     1       2.453   0.362  -0.255  1.00  0.00     0.031 C 
HETATM    7  C   LIG     1       0.332  -0.796  -0.966  1.00  0.00    -0.002 A 
HETATM    8  C   LIG     1      -1.042  -1.024  -0.838  1.00  0.00     0.027 A 
ENDROOT
TORSDOF 0
