REMARK  0 active torsions:
REMARK  status: ('A' for Active; 'I' for Inactive)
ROOT
HETATM    1 CL   LIG     1      -3.588  -0.409  -0.102  1.00  0.00    -0.082 Cl
HETATM    2  C   LIG     1      -1.845  -0.210  -0.053  1.00  0.00     0.058 A 
HETATM    3  C   LIG     1      -1.011  -1.230  -0.523  1.00  0.00     0.013 A 
HETATM    4  C   LIG     1       0.379  -1.072  -0.484  1.00  0.00     0.015 A 
HETATM    5  C   LIG     1       0.941   0.107   0.027  1.00  0.00     0.070 A 
HETATM    6  N   LIG     1       2.361   0.269   0.067  1.00  0.00    -0.101 NA
HETATM    7  C   LIG     1       0.100   1.127   0.498  1.00  0.00     0.015 A 
HETATM    8  C   LIG     1      -1.289   0.968   0.458  1.00  0.00     0.013 A 
ENDROOT
TORSDOF 0
