REMARK  0 active torsions:
REMARK  status: ('A' for Active; 'I' for Inactive)
ROOT
HETATM    1  C   LIG     1       2.888   0.040  -0.332  1.00  0.00     0.031 C 
HETATM    2  C   LIG     1       1.399   0.017  -0.150  1.00  0.00    -0.022 A 
HETATM    3  C   LIG     1       0.803  -0.825   0.802  1.00  0.00    -0.004 A 
HETATM    4  C   LIG     1      -0.586  -0.837   0.961  1.00  0.00    -0.004 A 
HETATM    5  C   LIG     1      -1.396   0.001   0.180  1.00  0.00    -0.022 A 
HETATM    6  C   LIG     1      -2.888  -0.041   0.323  1.00  0.00     0.031 C 
HETATM    7  C   LIG     1      -0.801   0.830  -0.784  1.00  0.00    -0.004 A 
HETATM    8  C   LIG     1       0.588   0.842  -0.943  1.00  0.00    -0.004 A 
ENDROOT
TORSDOF 0
