REMARK  0 active torsions:
REMARK  status: ('A' for Active; 'I' for Inactive)
ROOT
HETATM    1  N   LIG     1      -3.020   0.078  -0.107  1.00  0.00    -0.101 NA
HETATM    2  C   LIG     1      -1.592   0.035  -0.056  1.00  0.00     0.070 A 
HETATM    3  C   LIG     1      -0.930   0.020   1.179  1.00  0.00     0.014 A 
HETATM    4  C   LIG     1       0.467  -0.021   1.229  1.00  0.00    -0.003 A 
HETATM    5  C   LIG     1       1.217  -0.059   0.043  1.00  0.00    -0.022 A 
HETATM    6  C   LIG     1       2.716  -0.063   0.096  1.00  0.00     0.031 C 
HETATM    7  C   LIG     1       0.553  -0.026  -1.193  1.00  0.00    -0.003 A 
HETATM    8  C   LIG     1      -0.844   0.015  -1.242  1.00  0.00     0.014 A 
ENDROOT
TORSDOF 0
