REMARK  0 active torsions:
REMARK  status: ('A' for Active; 'I' for Inactive)
ROOT
HETATM    1  C   LIG     1      -2.631  -0.124  -0.279  1.00  0.00     0.040 C 
HETATM    2  C   LIG     1      -1.277   0.534  -0.591  1.00  0.00     0.292 C 
HETATM    3  N   LIG     1      -0.342  -0.410  -1.242  1.00  0.00     0.341 N 
HETATM    4  C   LIG     1       0.458  -1.158  -0.266  1.00  0.00     0.326 C 
HETATM    5  C   LIG     1       1.342  -0.194   0.570  1.00  0.00     0.292 C 
HETATM    6  C   LIG     1       2.789  -0.182   0.061  1.00  0.00     0.040 C 
HETATM    7  N   LIG     1       0.803   1.182   0.597  1.00  0.00     0.341 N 
HETATM    8  C   LIG     1      -0.661   1.170   0.681  1.00  0.00     0.326 C 
ENDROOT
TORSDOF 0
