REMARK  8 active torsions:
REMARK  status: ('A' for Active; 'I' for Inactive)
REMARK    1  A    between atoms: C_2  and  C_6 
REMARK    2  A    between atoms: C_2  and  O_3 
REMARK    3  A    between atoms: O_3  and  C_4 
REMARK    4  A    between atoms: C_6  and  C_7 
REMARK    5  A    between atoms: C_7  and  C_8 
REMARK    6  A    between atoms: C_8  and  C_9 
REMARK    7  A    between atoms: C_9  and  C_10 
REMARK    8  A    between atoms: C_10  and  C_11 
ROOT
HETATM    1  C   LIG     1      -1.535   1.679  -0.216  1.00  0.00     0.096 C 
ENDROOT
BRANCH   1   2
HETATM    2  C   LIG     1      -2.906   1.249   0.197  1.00  0.00     0.272 C 
HETATM    3  O   LIG     1      -3.370   1.621   1.309  1.00  0.00    -0.264 OA
BRANCH   2   4
HETATM    4  O   LIG     1      -3.642   0.403  -0.640  1.00  0.00    -0.302 OA
BRANCH   4   5
HETATM    5  C   LIG     1      -4.915  -0.136  -0.288  1.00  0.00     0.152 C 
HETATM    6  C   LIG     1      -4.757  -1.273   0.715  1.00  0.00     0.035 C 
ENDBRANCH   4   5
ENDBRANCH   2   4
ENDBRANCH   1   2
BRANCH   1   7
HETATM    7  C   LIG     1      -0.499   0.635   0.207  1.00  0.00     0.010 C 
BRANCH   7   8
HETATM    8  C   LIG     1       0.913   1.057  -0.217  1.00  0.00     0.001 C 
BRANCH   8   9
HETATM    9  C   LIG     1       1.952   0.011   0.207  1.00  0.00     0.000 C 
BRANCH   9  10
HETATM   10  C   LIG     1       3.364   0.431  -0.227  1.00  0.00     0.000 C 
BRANCH  10  11
HETATM   11  C   LIG     1       4.449  -0.529   0.285  1.00  0.00     0.000 C 
HETATM   12  C   LIG     1       4.416  -1.887  -0.417  1.00  0.00     0.000 C 
ENDBRANCH  10  11
ENDBRANCH   9  10
ENDBRANCH   8   9
ENDBRANCH   7   8
ENDBRANCH   1   7
TORSDOF 8
