REMARK  1 active torsions:
REMARK  status: ('A' for Active; 'I' for Inactive)
REMARK    1  A    between atoms: C_2  and  C_3 
ROOT
HETATM    1 BR   LIG     1      -1.556   1.491   0.587  1.00  0.00    -0.080 Br
HETATM    2  C   LIG     1      -0.754  -0.116  -0.148  1.00  0.00     0.080 C 
ENDROOT
BRANCH   2   3
HETATM    3  C   LIG     1       0.735  -0.185   0.172  1.00  0.00     0.080 C 
HETATM    4 BR   LIG     1       1.725   1.170  -0.802  1.00  0.00    -0.080 Br
ENDBRANCH   2   3
TORSDOF 1
