REMARK  0 active torsions:
REMARK  status: ('A' for Active; 'I' for Inactive)
ROOT
HETATM    1  C   LIG     1      -0.984  -0.327  -0.049  1.00  0.00     0.012 C 
HETATM    2  C   LIG     1       0.082   0.363   0.341  1.00  0.00     0.078 C 
HETATM    3  C   LIG     1       1.369   0.130  -0.257  1.00  0.00     0.102 C 
HETATM    4  N   LIG     1       2.404  -0.056  -0.739  1.00  0.00    -0.191 NA
ENDROOT
TORSDOF 0
