REMARK  1 active torsions:
REMARK  status: ('A' for Active; 'I' for Inactive)
REMARK    1  A    between atoms: C_2  and  C_3 
ROOT
HETATM    1  C   LIG     1      -1.211  -0.020  -0.147  1.00  0.00     0.004 C 
HETATM    2  C   LIG     1      -0.005   0.522   0.011  1.00  0.00     0.045 C 
ENDROOT
BRANCH   2   3
HETATM    3  C   LIG     1       1.216  -0.288   0.141  1.00  0.00     0.234 C 
HETATM    4  O   LIG     1       1.175  -1.547   0.107  1.00  0.00    -0.283 OA
ENDBRANCH   2   3
TORSDOF 1
