REMARK  1 active torsions:
REMARK  status: ('A' for Active; 'I' for Inactive)
REMARK    1  A    between atoms: C_2  and  C_3 
ROOT
HETATM    1  I   LIG     1       2.350   1.249   0.011  1.00  0.00    -0.075 I 
HETATM    2  C   LIG     1       1.062  -0.359   0.597  1.00  0.00     0.063 C 
ENDROOT
BRANCH   2   3
HETATM    3  C   LIG     1      -0.109  -0.535  -0.371  1.00  0.00     0.011 C 
HETATM    4  C   LIG     1      -1.134   0.590  -0.246  1.00  0.00     0.001 C 
ENDBRANCH   2   3
TORSDOF 1
