REMARK  2 active torsions:
REMARK  status: ('A' for Active; 'I' for Inactive)
REMARK    1  A    between atoms: C_2  and  C_4 
REMARK    2  A    between atoms: C_4  and  C_5 
ROOT
HETATM    1  C   LIG     1      -2.103  -1.055  -0.223  1.00  0.00     0.000 C 
HETATM    2  C   LIG     1      -1.076  -0.149   0.469  1.00  0.00     0.000 C 
HETATM    3  C   LIG     1      -1.508   1.320   0.340  1.00  0.00     0.000 C 
ENDROOT
BRANCH   2   4
HETATM    4  C   LIG     1       0.330  -0.392  -0.125  1.00  0.00     0.000 C 
BRANCH   4   5
HETATM    5  C   LIG     1       1.443   0.289   0.685  1.00  0.00     0.000 C 
HETATM    6  C   LIG     1       2.822  -0.098   0.159  1.00  0.00     0.000 C 
ENDBRANCH   4   5
ENDBRANCH   2   4
TORSDOF 2
