REMARK  1 active torsions:
REMARK  status: ('A' for Active; 'I' for Inactive)
REMARK    1  A    between atoms: C_2  and  C_3 
ROOT
HETATM    1 CL   LIG     1       1.556   1.408   0.084  1.00  0.00    -0.113 Cl
HETATM    2  C   LIG     1       0.749  -0.175  -0.071  1.00  0.00     0.113 C 
ENDROOT
BRANCH   2   3
HETATM    3  C   LIG     1      -0.768  -0.016  -0.084  1.00  0.00     0.113 C 
HETATM    4 CL   LIG     1      -1.365   0.545   1.501  1.00  0.00    -0.113 Cl
ENDBRANCH   2   3
TORSDOF 1
