REMARK  1 active torsions:
REMARK  status: ('A' for Active; 'I' for Inactive)
REMARK    1  A    between atoms: C_2  and  C_3 
ROOT
HETATM    1 BR   LIG     1      -1.610   1.103   1.081  1.00  0.00    -0.080 Br
HETATM    2  C   LIG     1      -0.736  -0.212  -0.045  1.00  0.00     0.085 C 
ENDROOT
BRANCH   2   3
HETATM    3  C   LIG     1       0.748   0.099  -0.206  1.00  0.00     0.107 C 
HETATM    4 CL   LIG     1       1.619  -0.134   1.333  1.00  0.00    -0.113 Cl
ENDBRANCH   2   3
TORSDOF 1
