REMARK  2 active torsions:
REMARK  status: ('A' for Active; 'I' for Inactive)
REMARK    1  A    between atoms: C_2  and  C_3 
REMARK    2  A    between atoms: C_3  and  C_4 
ROOT
HETATM    1  O   LIG     1       2.097   0.861  -0.058  1.00  0.00    -0.647 OA
HETATM    2  C   LIG     1       1.453  -0.313   0.319  1.00  0.00     0.185 C 
HETATM    3  O   LIG     1       1.753  -0.875   1.407  1.00  0.00    -0.647 OA
ENDROOT
BRANCH   2   4
HETATM    4  C   LIG     1       0.380  -0.890  -0.552  1.00  0.00     0.098 C 
BRANCH   4   5
HETATM    5  C   LIG     1      -1.021  -0.533  -0.040  1.00  0.00     0.011 C 
HETATM    6  C   LIG     1      -1.331   0.957  -0.181  1.00  0.00     0.001 C 
ENDBRANCH   4   5
ENDBRANCH   2   4
TORSDOF 2
