REMARK  2 active torsions:
REMARK  status: ('A' for Active; 'I' for Inactive)
REMARK    1  A    between atoms: C_2  and  C_4 
REMARK    2  A    between atoms: C_4  and  C_5 
ROOT
HETATM    1  C   LIG     1      -1.583  -1.139   0.095  1.00  0.00     0.000 C 
HETATM    2  C   LIG     1      -0.503  -0.105  -0.250  1.00  0.00     0.001 C 
HETATM    3  C   LIG     1      -0.974   1.297   0.163  1.00  0.00     0.000 C 
ENDROOT
BRANCH   2   4
HETATM    4  C   LIG     1       0.831  -0.488   0.428  1.00  0.00     0.012 C 
BRANCH   4   5
HETATM    5  C   LIG     1       2.012   0.349  -0.070  1.00  0.00     0.068 C 
HETATM    6 BR   LIG     1       3.667  -0.323   0.680  1.00  0.00    -0.081 Br
ENDBRANCH   4   5
ENDBRANCH   2   4
TORSDOF 2
