REMARK  2 active torsions:
REMARK  status: ('A' for Active; 'I' for Inactive)
REMARK    1  A    between atoms: C_2  and  C_3 
REMARK    2  A    between atoms: C_3  and  C_4 
ROOT
HETATM    1  C   LIG     1      -2.332   0.100   0.960  1.00  0.00     0.072 C 
HETATM    2  C   LIG     1      -1.416  -0.441  -0.095  1.00  0.00     0.151 C 
HETATM    3  O   LIG     1      -1.873  -0.791  -1.173  1.00  0.00    -0.296 OA
ENDROOT
BRANCH   2   4
HETATM    4  C   LIG     1       0.060  -0.568   0.168  1.00  0.00     0.065 C 
BRANCH   4   5
HETATM    5  C   LIG     1       0.857   0.378  -0.736  1.00  0.00     0.008 C 
HETATM    6  C   LIG     1       2.355   0.268  -0.465  1.00  0.00     0.001 C 
ENDBRANCH   4   5
ENDBRANCH   2   4
TORSDOF 2
