REMARK  1 active torsions:
REMARK  status: ('A' for Active; 'I' for Inactive)
REMARK    1  A    between atoms: C_2  and  C_3 
ROOT
HETATM    1  C   LIG     1      -1.420   0.048  -0.057  1.00  0.00    -0.004 C 
HETATM    2  C   LIG     1      -0.210  -0.515  -0.078  1.00  0.00    -0.009 C 
ENDROOT
BRANCH   2   3
HETATM    3  C   LIG     1       1.029   0.314   0.088  1.00  0.00     0.121 C 
HETATM    4 CL   LIG     1       2.481  -0.716   0.016  1.00  0.00    -0.109 Cl
ENDBRANCH   2   3
TORSDOF 1
