REMARK  1 active torsions:
REMARK  status: ('A' for Active; 'I' for Inactive)
REMARK    1  A    between atoms: C_1  and  O_2 
ROOT
HETATM    1  C   LIG     1       1.394   0.003   0.025  1.00  0.00     0.360 C 
HETATM    2  O   LIG     1       1.372   1.235   0.288  1.00  0.00    -0.253 OA
ENDROOT
BRANCH   1   3
HETATM    3  O   LIG     1       0.211  -0.719  -0.150  1.00  0.00    -0.292 OA
HETATM    4  C   LIG     1      -1.074  -0.118  -0.044  1.00  0.00     0.185 C 
ENDBRANCH   1   3
TORSDOF 1
