REMARK  5 active torsions:
REMARK  status: ('A' for Active; 'I' for Inactive)
REMARK    1  A    between atoms: C_2  and  C_3 
REMARK    2  A    between atoms: C_3  and  C_4 
REMARK    3  A    between atoms: C_4  and  C_5 
REMARK    4  A    between atoms: C_5  and  C_6 
REMARK    5  A    between atoms: C_6  and  C_7 
ROOT
HETATM    1  C   LIG     1       2.176  -0.059  -0.320  1.00  0.00    -0.022 A 
HETATM    2  C   LIG     1       3.207   0.830  -0.671  1.00  0.00    -0.004 A 
HETATM    3  C   LIG     1       4.538   0.515  -0.382  1.00  0.00    -0.000 A 
HETATM    4  C   LIG     1       4.852  -0.688   0.255  1.00  0.00    -0.000 A 
HETATM    5  C   LIG     1       3.834  -1.580   0.603  1.00  0.00    -0.000 A 
HETATM    6  C   LIG     1       2.501  -1.270   0.316  1.00  0.00    -0.004 A 
ENDROOT
BRANCH   1   7
HETATM    7  C   LIG     1       0.739   0.272  -0.633  1.00  0.00     0.026 C 
BRANCH   7   8
HETATM    8  C   LIG     1      -0.047   0.567   0.654  1.00  0.00     0.004 C 
BRANCH   8   9
HETATM    9  C   LIG     1      -1.475   1.062   0.375  1.00  0.00     0.000 C 
BRANCH   9  10
HETATM   10  C   LIG     1      -2.388  -0.045  -0.174  1.00  0.00     0.000 C 
BRANCH  10  11
HETATM   11  C   LIG     1      -3.831   0.453  -0.312  1.00  0.00     0.000 C 
HETATM   12  C   LIG     1      -4.741  -0.640  -0.867  1.00  0.00     0.000 C 
ENDBRANCH  10  11
ENDBRANCH   9  10
ENDBRANCH   8   9
ENDBRANCH   7   8
ENDBRANCH   1   7
TORSDOF 5
