REMARK  0 active torsions:
REMARK  status: ('A' for Active; 'I' for Inactive)
ROOT
HETATM    1  C   LIG     1       2.406  -0.946   0.656  1.00  0.00     0.052 C 
HETATM    2  C   LIG     1       1.178  -0.216   0.213  1.00  0.00     0.059 A 
HETATM    3  N   LIG     1      -0.038  -0.814   0.350  1.00  0.00    -0.254 NA
HETATM    4  C   LIG     1      -1.192  -0.202  -0.033  1.00  0.00     0.059 A 
HETATM    5  C   LIG     1      -2.501  -0.903   0.139  1.00  0.00     0.052 C 
HETATM    6  C   LIG     1      -1.145   1.084  -0.588  1.00  0.00     0.015 A 
HETATM    7  C   LIG     1       0.089   1.719  -0.739  1.00  0.00     0.002 A 
HETATM    8  C   LIG     1       1.259   1.071  -0.338  1.00  0.00     0.015 A 
ENDROOT
TORSDOF 0
