REMARK  0 active torsions:
REMARK  status: ('A' for Active; 'I' for Inactive)
ROOT
HETATM    1  O   LIG     1      -2.322  -0.497  -0.683  1.00  0.00    -0.224 OA
HETATM    2  C   LIG     1      -1.307  -0.189   0.237  1.00  0.00     0.152 C 
HETATM    3  C   LIG     1      -0.671   1.175  -0.128  1.00  0.00     0.033 C 
HETATM    4  C   LIG     1       0.789   1.261   0.330  1.00  0.00     0.003 C 
HETATM    5  C   LIG     1       1.660   0.184  -0.347  1.00  0.00     0.000 C 
HETATM    6  C   LIG     1       0.883  -1.101  -0.701  1.00  0.00     0.003 C 
HETATM    7  C   LIG     1      -0.278  -1.344   0.269  1.00  0.00     0.033 C 
ENDROOT
TORSDOF 0
