REMARK  2 active torsions:
REMARK  status: ('A' for Active; 'I' for Inactive)
REMARK    1  A    between atoms: C_2  and  C_4 
REMARK    2  A    between atoms: C_4  and  C_5 
ROOT
HETATM    1  C   LIG     1       0.030   0.569  -0.417  1.00  0.00     0.000 C 
ENDROOT
BRANCH   1   2
HETATM    2  C   LIG     1       1.160  -0.490  -0.374  1.00  0.00     0.000 C 
HETATM    3  C   LIG     1       1.784  -0.618   1.024  1.00  0.00     0.000 C 
HETATM    4  C   LIG     1       2.247  -0.130  -1.397  1.00  0.00     0.000 C 
ENDBRANCH   1   2
BRANCH   1   5
HETATM    5  C   LIG     1      -1.171   0.291   0.521  1.00  0.00     0.000 C 
HETATM    6  C   LIG     1      -1.872  -1.035   0.190  1.00  0.00     0.000 C 
HETATM    7  C   LIG     1      -2.177   1.447   0.430  1.00  0.00     0.000 C 
ENDBRANCH   1   5
TORSDOF 2
