REMARK  0 active torsions:
REMARK  status: ('A' for Active; 'I' for Inactive)
ROOT
HETATM    1 CL   LIG     1      -2.293  -2.208  -1.159  1.00  0.00    -0.082 Cl
HETATM    2  C   LIG     1      -1.281  -0.925  -0.524  1.00  0.00     0.059 A 
HETATM    3  C   LIG     1       0.104  -1.106  -0.430  1.00  0.00     0.025 A 
HETATM    4  C   LIG     1       0.917  -0.082   0.077  1.00  0.00     0.071 A 
HETATM    5  N   LIG     1       2.332  -0.266   0.173  1.00  0.00    -0.101 NA
HETATM    6  C   LIG     1       0.333   1.125   0.490  1.00  0.00     0.014 A 
HETATM    7  C   LIG     1      -1.050   1.304   0.396  1.00  0.00     0.002 A 
HETATM    8  C   LIG     1      -1.857   0.281  -0.110  1.00  0.00     0.011 A 
ENDROOT
TORSDOF 0
