REMARK  0 active torsions:
REMARK  status: ('A' for Active; 'I' for Inactive)
ROOT
HETATM    1  C   LIG     1       2.221  -0.009   0.067  1.00  0.00     0.031 C 
HETATM    2  C   LIG     1       0.722   0.005   0.020  1.00  0.00    -0.022 A 
HETATM    3  C   LIG     1       0.022   1.183  -0.293  1.00  0.00    -0.004 A 
HETATM    4  C   LIG     1      -1.376   1.181  -0.333  1.00  0.00    -0.000 A 
HETATM    5  C   LIG     1      -2.083   0.006  -0.062  1.00  0.00    -0.000 A 
HETATM    6  C   LIG     1      -1.393  -1.169   0.250  1.00  0.00    -0.000 A 
HETATM    7  C   LIG     1       0.005  -1.171   0.291  1.00  0.00    -0.004 A 
ENDROOT
TORSDOF 0
