REMARK  0 active torsions:
REMARK  status: ('A' for Active; 'I' for Inactive)
ROOT
HETATM    1 BR   LIG     1       3.164  -0.821  -0.049  1.00  0.00    -0.049 Br
HETATM    2  C   LIG     1       1.323  -0.314  -0.021  1.00  0.00     0.035 A 
HETATM    3  C   LIG     1       0.327  -1.297   0.018  1.00  0.00     0.018 A 
HETATM    4  C   LIG     1      -1.023  -0.926   0.039  1.00  0.00     0.058 A 
HETATM    5 CL   LIG     1      -2.271  -2.157   0.088  1.00  0.00    -0.082 Cl
HETATM    6  C   LIG     1      -1.375   0.429   0.020  1.00  0.00     0.011 A 
HETATM    7  C   LIG     1      -0.380   1.410  -0.019  1.00  0.00     0.001 A 
HETATM    8  C   LIG     1       0.969   1.040  -0.040  1.00  0.00     0.007 A 
ENDROOT
TORSDOF 0
