REMARK  2 active torsions:
REMARK  status: ('A' for Active; 'I' for Inactive)
REMARK    1  A    between atoms: C_2  and  C_4 
REMARK    2  A    between atoms: C_4  and  C_5 
ROOT
HETATM    1  C   LIG     1       0.213  -0.827  -0.045  1.00  0.00     0.033 C 
ENDROOT
BRANCH   1   2
HETATM    2  C   LIG     1      -0.920   0.136  -0.478  1.00  0.00     0.003 C 
HETATM    3  C   LIG     1      -1.447   0.977   0.695  1.00  0.00     0.000 C 
HETATM    4  C   LIG     1      -2.071  -0.665  -1.101  1.00  0.00     0.000 C 
ENDBRANCH   1   2
BRANCH   1   5
HETATM    5  C   LIG     1       1.476  -0.144   0.530  1.00  0.00     0.152 C 
HETATM    6  C   LIG     1       2.141   0.791  -0.484  1.00  0.00     0.036 C 
HETATM    7  O   LIG     1       2.406  -1.130   0.897  1.00  0.00    -0.224 OA
ENDBRANCH   1   5
TORSDOF 2
