REMARK  0 active torsions:
REMARK  status: ('A' for Active; 'I' for Inactive)
ROOT
HETATM    1 BR   LIG     1      -2.354  -2.278  -0.048  1.00  0.00    -0.049 Br
HETATM    2  C   LIG     1      -1.006  -0.925  -0.020  1.00  0.00     0.035 A 
HETATM    3  C   LIG     1       0.347  -1.285  -0.022  1.00  0.00     0.013 A 
HETATM    4  C   LIG     1       1.335  -0.294  -0.001  1.00  0.00     0.035 A 
HETATM    5 BR   LIG     1       3.181  -0.784  -0.003  1.00  0.00    -0.049 Br
HETATM    6  C   LIG     1       0.969   1.057   0.022  1.00  0.00     0.007 A 
HETATM    7  C   LIG     1      -0.382   1.416   0.024  1.00  0.00     0.001 A 
HETATM    8  C   LIG     1      -1.370   0.426   0.003  1.00  0.00     0.007 A 
ENDROOT
TORSDOF 0
