REMARK  0 active torsions:
REMARK  status: ('A' for Active; 'I' for Inactive)
ROOT
HETATM    1  O   LIG     1      -2.154  -1.330   0.220  1.00  0.00    -0.190 OA
HETATM    2  C   LIG     1      -0.971  -0.606   0.098  1.00  0.00     0.132 A 
HETATM    3  C   LIG     1      -0.913   0.740   0.488  1.00  0.00     0.027 A 
HETATM    4  C   LIG     1       0.281   1.456   0.360  1.00  0.00     0.003 A 
HETATM    5  C   LIG     1       1.420   0.832  -0.159  1.00  0.00     0.011 A 
HETATM    6  C   LIG     1       1.366  -0.511  -0.550  1.00  0.00     0.060 A 
HETATM    7 CL   LIG     1       2.794  -1.294  -1.200  1.00  0.00    -0.082 Cl
HETATM    8  C   LIG     1       0.170  -1.228  -0.421  1.00  0.00     0.039 A 
ENDROOT
TORSDOF 0
