REMARK  0 active torsions:
REMARK  status: ('A' for Active; 'I' for Inactive)
ROOT
HETATM    1  C   LIG     1       2.318  -0.987  -0.017  1.00  0.00     0.031 C 
HETATM    2  C   LIG     1       1.081  -0.139  -0.042  1.00  0.00    -0.019 A 
HETATM    3  C   LIG     1      -0.191  -0.717   0.086  1.00  0.00     0.011 A 
HETATM    4  C   LIG     1      -1.327   0.103   0.059  1.00  0.00     0.059 A 
HETATM    5  C   LIG     1      -2.692  -0.493   0.194  1.00  0.00     0.052 C 
HETATM    6  N   LIG     1      -1.187   1.449  -0.091  1.00  0.00    -0.248 NA
HETATM    7  C   LIG     1       0.035   2.032  -0.218  1.00  0.00     0.098 A 
HETATM    8  C   LIG     1       1.191   1.249  -0.195  1.00  0.00     0.016 A 
ENDROOT
TORSDOF 0
