REMARK  0 active torsions:
REMARK  status: ('A' for Active; 'I' for Inactive)
ROOT
HETATM    1 CL   LIG     1      -1.300   2.874  -0.005  1.00  0.00    -0.082 Cl
HETATM    2  C   LIG     1      -0.577   1.276  -0.002  1.00  0.00     0.059 A 
HETATM    3  C   LIG     1      -1.392   0.138   0.031  1.00  0.00     0.023 A 
HETATM    4  C   LIG     1      -0.816  -1.137   0.033  1.00  0.00     0.059 A 
HETATM    5 CL   LIG     1      -1.838  -2.562   0.074  1.00  0.00    -0.082 Cl
HETATM    6  C   LIG     1       0.577  -1.275   0.002  1.00  0.00     0.023 A 
HETATM    7  C   LIG     1       1.393  -0.139  -0.031  1.00  0.00     0.059 A 
HETATM    8 CL   LIG     1       3.138  -0.312  -0.069  1.00  0.00    -0.082 Cl
HETATM    9  C   LIG     1       0.816   1.137  -0.033  1.00  0.00     0.023 A 
ENDROOT
TORSDOF 0
