REMARK  2 active torsions:
REMARK  status: ('A' for Active; 'I' for Inactive)
REMARK    1  A    between atoms: C_2  and  O_4 
REMARK    2  A    between atoms: O_4  and  C_5 
ROOT
HETATM    1  O   LIG     1       0.100   0.083  -0.550  1.00  0.00    -0.359 OA
ENDROOT
BRANCH   1   2
HETATM    2  C   LIG     1       1.121  -0.214   0.389  1.00  0.00     0.115 C 
HETATM    3  C   LIG     1       2.181  -1.069  -0.303  1.00  0.00     0.032 C 
HETATM    4  C   LIG     1       1.745   1.088   0.902  1.00  0.00     0.032 C 
ENDBRANCH   1   2
BRANCH   1   5
HETATM    5  C   LIG     1      -1.175   0.169   0.064  1.00  0.00     0.115 C 
HETATM    6  C   LIG     1      -2.000   1.218  -0.680  1.00  0.00     0.032 C 
HETATM    7  C   LIG     1      -1.873  -1.194  -0.001  1.00  0.00     0.032 C 
ENDBRANCH   1   5
TORSDOF 2
