REMARK  2 active torsions:
REMARK  status: ('A' for Active; 'I' for Inactive)
REMARK    1  A    between atoms: C_2  and  C_3 
REMARK    2  A    between atoms: C_3  and  C_4 
ROOT
HETATM    1  C   LIG     1       0.377  -0.113  -0.823  1.00  0.00     0.065 C 
ENDROOT
BRANCH   1   2
HETATM    2  C   LIG     1       1.107   1.168  -0.514  1.00  0.00     0.151 C 
HETATM    3  C   LIG     1       2.394   1.142   0.254  1.00  0.00     0.072 C 
HETATM    4  O   LIG     1       0.655   2.235  -0.904  1.00  0.00    -0.296 OA
ENDBRANCH   1   2
BRANCH   1   5
HETATM    5  C   LIG     1      -1.015  -0.162  -0.157  1.00  0.00     0.007 C 
HETATM    6  C   LIG     1      -1.795  -1.385  -0.653  1.00  0.00     0.000 C 
HETATM    7  C   LIG     1      -0.905  -0.194   1.375  1.00  0.00     0.000 C 
ENDBRANCH   1   5
TORSDOF 2
