REMARK  0 active torsions:
REMARK  status: ('A' for Active; 'I' for Inactive)
ROOT
HETATM    1  O   LIG     1       2.417  -0.702  -0.015  1.00  0.00    -0.190 OA
HETATM    2  C   LIG     1       1.071  -0.342  -0.011  1.00  0.00     0.131 A 
HETATM    3  C   LIG     1       0.689   0.996   0.169  1.00  0.00     0.027 A 
HETATM    4  C   LIG     1      -0.666   1.343   0.171  1.00  0.00     0.002 A 
HETATM    5  C   LIG     1      -1.642   0.357  -0.007  1.00  0.00     0.000 A 
HETATM    6  C   LIG     1      -1.263  -0.977  -0.187  1.00  0.00     0.002 A 
HETATM    7  C   LIG     1       0.092  -1.326  -0.189  1.00  0.00     0.027 A 
ENDROOT
TORSDOF 0
