REMARK  0 active torsions:
REMARK  status: ('A' for Active; 'I' for Inactive)
ROOT
HETATM    1 CL   LIG     1       2.709  -1.504  -0.045  1.00  0.00    -0.082 Cl
HETATM    2  C   LIG     1       1.176  -0.653  -0.019  1.00  0.00     0.058 A 
HETATM    3  C   LIG     1      -0.025  -1.372  -0.020  1.00  0.00     0.011 A 
HETATM    4  C   LIG     1      -1.248  -0.693   0.000  1.00  0.00     0.001 A 
HETATM    5  C   LIG     1      -1.271   0.706   0.021  1.00  0.00     0.000 A 
HETATM    6  C   LIG     1      -0.072   1.425   0.021  1.00  0.00     0.001 A 
HETATM    7  C   LIG     1       1.151   0.747   0.001  1.00  0.00     0.011 A 
ENDROOT
TORSDOF 0
