REMARK  0 active torsions:
REMARK  status: ('A' for Active; 'I' for Inactive)
ROOT
HETATM    1  C   LIG     1      -2.368  -1.674  -0.197  1.00  0.00     0.031 C 
HETATM    2  C   LIG     1      -1.140  -0.818  -0.095  1.00  0.00    -0.022 A 
HETATM    3  C   LIG     1      -1.265   0.579  -0.113  1.00  0.00    -0.008 A 
HETATM    4  C   LIG     1      -0.130   1.396   0.000  1.00  0.00    -0.022 A 
HETATM    5  C   LIG     1      -0.268   2.889  -0.049  1.00  0.00     0.031 C 
HETATM    6  C   LIG     1       1.139   0.807   0.095  1.00  0.00    -0.008 A 
HETATM    7  C   LIG     1       1.277  -0.589   0.095  1.00  0.00    -0.022 A 
HETATM    8  C   LIG     1       2.634  -1.213   0.245  1.00  0.00     0.031 C 
HETATM    9  C   LIG     1       0.133  -1.397   0.019  1.00  0.00    -0.008 A 
ENDROOT
TORSDOF 0
