REMARK  0 active torsions:
REMARK  status: ('A' for Active; 'I' for Inactive)
ROOT
HETATM    1  O   LIG     1      -2.270  -1.320  -0.222  1.00  0.00    -0.190 OA
HETATM    2  C   LIG     1      -1.156  -0.489  -0.126  1.00  0.00     0.133 A 
HETATM    3  C   LIG     1       0.121  -1.026   0.089  1.00  0.00     0.055 A 
HETATM    4  C   LIG     1       1.235  -0.179   0.184  1.00  0.00     0.133 A 
HETATM    5  O   LIG     1       2.509  -0.701   0.397  1.00  0.00    -0.190 OA
HETATM    6  C   LIG     1       1.067   1.205   0.063  1.00  0.00     0.028 A 
HETATM    7  C   LIG     1      -0.206   1.742  -0.151  1.00  0.00     0.004 A 
HETATM    8  C   LIG     1      -1.316   0.897  -0.246  1.00  0.00     0.028 A 
ENDROOT
TORSDOF 0
