REMARK  0 active torsions:
REMARK  status: ('A' for Active; 'I' for Inactive)
ROOT
HETATM    1  O   LIG     1       0.318   2.577   0.388  1.00  0.00    -0.296 OA
HETATM    2  C   LIG     1       0.154   1.484  -0.132  1.00  0.00     0.151 C 
HETATM    3  C   LIG     1       1.328   0.719  -0.678  1.00  0.00     0.065 C 
HETATM    4  C   LIG     1       1.226  -0.762  -0.292  1.00  0.00     0.008 C 
HETATM    5  C   LIG     1      -0.153  -1.339  -0.643  1.00  0.00     0.001 C 
HETATM    6  C   LIG     1      -1.271  -0.554   0.059  1.00  0.00     0.008 C 
HETATM    7  C   LIG     1      -1.232   0.933  -0.318  1.00  0.00     0.065 C 
ENDROOT
TORSDOF 0
