REMARK  0 active torsions:
REMARK  status: ('A' for Active; 'I' for Inactive)
ROOT
HETATM    1  O   LIG     1      -2.599  -1.397  -0.184  1.00  0.00    -0.190 OA
HETATM    2  C   LIG     1      -1.532  -0.510  -0.053  1.00  0.00     0.131 A 
HETATM    3  C   LIG     1      -1.785   0.837   0.225  1.00  0.00     0.027 A 
HETATM    4  C   LIG     1      -0.724   1.736   0.367  1.00  0.00     0.002 A 
HETATM    5  C   LIG     1       0.594   1.292   0.227  1.00  0.00    -0.004 A 
HETATM    6  C   LIG     1       0.859  -0.054  -0.070  1.00  0.00    -0.020 A 
HETATM    7  C   LIG     1       2.274  -0.539  -0.181  1.00  0.00     0.031 C 
HETATM    8  C   LIG     1      -0.210  -0.956  -0.194  1.00  0.00     0.023 A 
ENDROOT
TORSDOF 0
