REMARK  0 active torsions:
REMARK  status: ('A' for Active; 'I' for Inactive)
ROOT
HETATM    1  C   LIG     1       2.246  -1.029  -0.571  1.00  0.00     0.031 C 
HETATM    2  C   LIG     1       1.028  -0.229  -0.213  1.00  0.00    -0.021 A 
HETATM    3  C   LIG     1      -0.223  -0.861  -0.137  1.00  0.00     0.010 A 
HETATM    4  C   LIG     1      -1.370  -0.127   0.197  1.00  0.00     0.070 A 
HETATM    5  N   LIG     1      -2.643  -0.775   0.273  1.00  0.00    -0.101 NA
HETATM    6  C   LIG     1      -1.263   1.247   0.455  1.00  0.00     0.014 A 
HETATM    7  C   LIG     1      -0.019   1.881   0.381  1.00  0.00     0.001 A 
HETATM    8  C   LIG     1       1.123   1.148   0.048  1.00  0.00    -0.004 A 
ENDROOT
TORSDOF 0
