REMARK  2 active torsions:
REMARK  status: ('A' for Active; 'I' for Inactive)
REMARK    1  A    between atoms: C_2  and  O_3 
REMARK    2  A    between atoms: O_3  and  C_4 
ROOT
HETATM    1  O   LIG     1       0.411   0.397   0.119  1.00  0.00    -0.304 OA
ENDROOT
BRANCH   1   2
HETATM    2  C   LIG     1       1.487  -0.448   0.410  1.00  0.00     0.272 C 
HETATM    3  C   LIG     1       2.878   0.044   0.195  1.00  0.00     0.106 C 
HETATM    4  O   LIG     1       1.294  -1.612   0.856  1.00  0.00    -0.264 OA
ENDBRANCH   1   2
BRANCH   1   5
HETATM    5  C   LIG     1      -0.957   0.005   0.246  1.00  0.00     0.124 C 
HETATM    6  C   LIG     1      -1.831   1.257   0.263  1.00  0.00     0.033 C 
HETATM    7  C   LIG     1      -1.355  -0.911  -0.915  1.00  0.00     0.033 C 
ENDBRANCH   1   5
TORSDOF 2
