REMARK  0 active torsions:
REMARK  status: ('A' for Active; 'I' for Inactive)
ROOT
HETATM    1  C   LIG     1       2.393   0.409   0.169  1.00  0.00     0.000 C 
HETATM    2  C   LIG     1       0.916   0.060   0.383  1.00  0.00     0.000 C 
HETATM    3  C   LIG     1       0.025   1.322   0.257  1.00  0.00     0.000 C 
HETATM    4  C   LIG     1      -1.431   1.009  -0.145  1.00  0.00     0.000 C 
HETATM    5  C   LIG     1      -1.863  -0.387   0.312  1.00  0.00     0.000 C 
HETATM    6  C   LIG     1      -0.986  -1.488  -0.318  1.00  0.00     0.000 C 
HETATM    7  C   LIG     1       0.463  -1.036  -0.598  1.00  0.00     0.000 C 
ENDROOT
TORSDOF 0
