REMARK  0 active torsions:
REMARK  status: ('A' for Active; 'I' for Inactive)
ROOT
HETATM    1  C   LIG     1       2.583  -0.662  -0.026  1.00  0.00     0.031 C 
HETATM    2  C   LIG     1       1.226  -0.023  -0.062  1.00  0.00    -0.022 A 
HETATM    3  C   LIG     1       0.079  -0.816   0.101  1.00  0.00    -0.008 A 
HETATM    4  C   LIG     1      -1.199  -0.235   0.061  1.00  0.00    -0.022 A 
HETATM    5  C   LIG     1      -2.420  -1.080   0.275  1.00  0.00     0.031 C 
HETATM    6  C   LIG     1      -1.322   1.152  -0.111  1.00  0.00    -0.004 A 
HETATM    7  C   LIG     1      -0.182   1.944  -0.273  1.00  0.00    -0.001 A 
HETATM    8  C   LIG     1       1.088   1.361  -0.252  1.00  0.00    -0.004 A 
ENDROOT
TORSDOF 0
