REMARK  0 active torsions:
REMARK  status: ('A' for Active; 'I' for Inactive)
ROOT
HETATM    1 BR   LIG     1      -0.976   1.504  -2.092  1.00  0.00    -0.082 Br
HETATM    2  C   LIG     1      -0.714   1.281  -0.174  1.00  0.00     0.057 C 
HETATM    3  C   LIG     1      -1.442   0.029   0.343  1.00  0.00     0.011 C 
HETATM    4  C   LIG     1      -0.757  -1.266  -0.116  1.00  0.00     0.001 C 
HETATM    5  C   LIG     1       0.722  -1.280   0.284  1.00  0.00     0.000 C 
HETATM    6  C   LIG     1       1.453  -0.056  -0.277  1.00  0.00     0.001 C 
HETATM    7  C   LIG     1       0.782   1.246   0.181  1.00  0.00     0.011 C 
ENDROOT
TORSDOF 0
