REMARK  0 active torsions:
REMARK  status: ('A' for Active; 'I' for Inactive)
ROOT
HETATM    1  C   LIG     1       2.520  -1.144  -0.332  1.00  0.00     0.031 C 
HETATM    2  C   LIG     1       1.248  -0.366  -0.168  1.00  0.00    -0.020 A 
HETATM    3  C   LIG     1       0.043  -1.045   0.067  1.00  0.00    -0.008 A 
HETATM    4  C   LIG     1      -1.155  -0.332   0.232  1.00  0.00    -0.020 A 
HETATM    5  C   LIG     1      -2.446  -1.065   0.444  1.00  0.00     0.031 C 
HETATM    6  C   LIG     1      -1.146   1.067   0.128  1.00  0.00     0.023 A 
HETATM    7  C   LIG     1       0.055   1.751  -0.107  1.00  0.00     0.130 A 
HETATM    8  O   LIG     1       0.072   3.141  -0.202  1.00  0.00    -0.190 OA
HETATM    9  C   LIG     1       1.247   1.035  -0.251  1.00  0.00     0.023 A 
ENDROOT
TORSDOF 0
