REMARK  0 active torsions:
REMARK  status: ('A' for Active; 'I' for Inactive)
ROOT
HETATM    1 BR   LIG     1       3.211   0.446  -0.009  1.00  0.00    -0.049 Br
HETATM    2  C   LIG     1       1.319   0.183  -0.004  1.00  0.00     0.035 A 
HETATM    3  C   LIG     1       0.458   1.287   0.004  1.00  0.00     0.007 A 
HETATM    4  C   LIG     1      -0.927   1.094   0.008  1.00  0.00     0.001 A 
HETATM    5  C   LIG     1      -1.453  -0.202   0.004  1.00  0.00     0.000 A 
HETATM    6  C   LIG     1      -0.594  -1.306  -0.004  1.00  0.00     0.001 A 
HETATM    7  C   LIG     1       0.792  -1.114  -0.008  1.00  0.00     0.007 A 
ENDROOT
TORSDOF 0
