REMARK  0 active torsions:
REMARK  status: ('A' for Active; 'I' for Inactive)
ROOT
HETATM    1  S   LIG     1       2.796   0.400  -0.611  1.00  0.00    -0.050 SA
HETATM    2  C   LIG     1       1.050   0.159  -0.297  1.00  0.00     0.036 A 
HETATM    3  C   LIG     1       0.230   1.259  -0.014  1.00  0.00     0.007 A 
HETATM    4  C   LIG     1      -1.134   1.070   0.230  1.00  0.00     0.001 A 
HETATM    5  C   LIG     1      -1.681  -0.217   0.192  1.00  0.00     0.000 A 
HETATM    6  C   LIG     1      -0.863  -1.316  -0.091  1.00  0.00     0.001 A 
HETATM    7  C   LIG     1       0.501  -1.129  -0.336  1.00  0.00     0.007 A 
ENDROOT
TORSDOF 0
