REMARK  0 active torsions:
REMARK  status: ('A' for Active; 'I' for Inactive)
ROOT
HETATM    1  C   LIG     1      -0.876  -0.734  -0.011  1.00  0.00     0.099 A 
HETATM    2  C   LIG     1      -0.989   0.642  -0.026  1.00  0.00     0.022 A 
HETATM    3  C   LIG     1       0.297   1.141  -0.004  1.00  0.00     0.022 A 
HETATM    4  C   LIG     1       1.141   0.050   0.023  1.00  0.00     0.099 A 
HETATM    5  N   LIG     1       0.422  -1.087   0.019  1.00  0.00    -0.242 NA
ENDROOT
TORSDOF 0
