REMARK  0 active torsions:
REMARK  status: ('A' for Active; 'I' for Inactive)
ROOT
HETATM    1  C   LIG     1      -2.093  -0.530  -0.147  1.00  0.00     0.286 C 
HETATM    2  N   LIG     1      -0.699  -0.181  -0.459  1.00  0.00     0.144 N 
HETATM    3  C   LIG     1      -0.384   1.173   0.037  1.00  0.00     0.282 C 
HETATM    4  C   LIG     1       1.130   1.455  -0.056  1.00  0.00     0.178 C 
HETATM    5  O   LIG     1       1.783   0.472  -0.835  1.00  0.00    -0.350 OA
HETATM    6  C   LIG     1       1.685  -0.788  -0.196  1.00  0.00     0.178 C 
HETATM    7  C   LIG     1       0.224  -1.165   0.131  1.00  0.00     0.282 C 
ENDROOT
TORSDOF 0
