REMARK  2 active torsions:
REMARK  status: ('A' for Active; 'I' for Inactive)
REMARK    1  A    between atoms: C_1  and  O_2 
REMARK    2  A    between atoms: O_2  and  C_3 
ROOT
HETATM    1  O   LIG     1       0.794  -0.645   0.630  1.00  0.00    -0.294 OA
ENDROOT
BRANCH   1   2
HETATM    2  C   LIG     1       1.898  -0.057   0.005  1.00  0.00     0.360 C 
HETATM    3  O   LIG     1       1.834   1.106  -0.474  1.00  0.00    -0.253 OA
ENDBRANCH   1   2
BRANCH   1   4
HETATM    4  C   LIG     1      -0.480  -0.010   0.733  1.00  0.00     0.152 C 
HETATM    5  C   LIG     1      -1.216  -0.061  -0.601  1.00  0.00     0.035 C 
ENDBRANCH   1   4
TORSDOF 2
