REMARK  2 active torsions:
REMARK  status: ('A' for Active; 'I' for Inactive)
REMARK    1  A    between atoms: C_2  and  O_3 
REMARK    2  A    between atoms: O_3  and  C_4 
ROOT
HETATM    1  O   LIG     1       0.295   0.245   0.233  1.00  0.00    -0.329 OA
ENDROOT
BRANCH   1   2
HETATM    2  C   LIG     1      -0.950  -0.413   0.038  1.00  0.00     0.149 C 
HETATM    3  C   LIG     1      -2.077   0.607   0.067  1.00  0.00     0.035 C 
ENDBRANCH   1   2
BRANCH   1   4
HETATM    4  C   LIG     1       1.496  -0.461   0.251  1.00  0.00     0.116 C 
HETATM    5  C   LIG     1       2.642   0.182   0.434  1.00  0.00     0.028 C 
ENDBRANCH   1   4
TORSDOF 2
