REMARK  0 active torsions:
REMARK  status: ('A' for Active; 'I' for Inactive)
ROOT
HETATM    1  O   LIG     1       2.334   0.504   0.026  1.00  0.00    -0.189 OA
HETATM    2  C   LIG     1       0.988   0.149   0.014  1.00  0.00     0.150 A 
HETATM    3  C   LIG     1       0.006   1.142  -0.045  1.00  0.00     0.031 A 
HETATM    4  C   LIG     1      -1.345   0.785  -0.058  1.00  0.00     0.023 A 
HETATM    5  C   LIG     1      -1.695  -0.566  -0.011  1.00  0.00     0.099 A 
HETATM    6  N   LIG     1      -0.726  -1.519   0.046  1.00  0.00    -0.240 NA
HETATM    7  C   LIG     1       0.595  -1.195   0.059  1.00  0.00     0.126 A 
ENDROOT
TORSDOF 0
