REMARK  0 active torsions:
REMARK  status: ('A' for Active; 'I' for Inactive)
ROOT
HETATM    1  C   LIG     1      -1.015   0.223  -0.217  1.00  0.00     0.035 C 
HETATM    2  C   LIG     1       0.218   1.039   0.001  1.00  0.00     0.035 C 
HETATM    3  C   LIG     1       1.325   0.008  -0.076  1.00  0.00     0.142 C 
HETATM    4  O   LIG     1       0.800  -1.267   0.217  1.00  0.00    -0.354 OA
HETATM    5  C   LIG     1      -0.604  -1.151   0.271  1.00  0.00     0.142 C 
ENDROOT
TORSDOF 0
