REMARK  2 active torsions:
REMARK  status: ('A' for Active; 'I' for Inactive)
REMARK    1  A    between atoms: C_2  and  C_3 
REMARK    2  A    between atoms: C_3  and  C_4 
ROOT
HETATM    1  C   LIG     1       0.234   0.658  -0.802  1.00  0.00     0.026 C 
ENDROOT
BRANCH   1   2
HETATM    2  C   LIG     1       1.409  -0.118  -0.269  1.00  0.00    -0.026 C 
HETATM    3  C   LIG     1       1.971   0.170   0.908  1.00  0.00    -0.004 C 
ENDBRANCH   1   2
BRANCH   1   4
HETATM    4  C   LIG     1      -1.053  -0.175  -0.769  1.00  0.00     0.004 C 
HETATM    5  C   LIG     1      -1.543  -0.427   0.657  1.00  0.00     0.000 C 
ENDBRANCH   1   4
TORSDOF 2
