REMARK  2 active torsions:
REMARK  status: ('A' for Active; 'I' for Inactive)
REMARK    1  A    between atoms: C_2  and  C_3 
REMARK    2  A    between atoms: C_3  and  C_4 
ROOT
HETATM    1  C   LIG     1       0.012  -0.618   0.235  1.00  0.00     0.025 C 
ENDROOT
BRANCH   1   2
HETATM    2  C   LIG     1      -1.280   0.063  -0.235  1.00  0.00     0.069 C 
HETATM    3 BR   LIG     1      -1.817   1.517   0.932  1.00  0.00    -0.081 Br
ENDBRANCH   1   2
BRANCH   1   4
HETATM    4  C   LIG     1       1.284   0.132  -0.182  1.00  0.00     0.069 C 
HETATM    5 BR   LIG     1       1.693   1.611   1.005  1.00  0.00    -0.081 Br
ENDBRANCH   1   4
TORSDOF 2
