REMARK  2 active torsions:
REMARK  status: ('A' for Active; 'I' for Inactive)
REMARK    1  A    between atoms: C_2  and  C_3 
REMARK    2  A    between atoms: C_3  and  C_4 
ROOT
HETATM    1  C   LIG     1       0.725  -0.701   0.179  1.00  0.00     0.018 C 
ENDROOT
BRANCH   1   2
HETATM    2  C   LIG     1       1.554   0.451  -0.405  1.00  0.00     0.095 C 
HETATM    3 CL   LIG     1       1.491   1.901   0.634  1.00  0.00    -0.114 Cl
ENDBRANCH   1   2
BRANCH   1   4
HETATM    4  C   LIG     1      -0.753  -0.675  -0.246  1.00  0.00     0.001 C 
HETATM    5  C   LIG     1      -1.535   0.486   0.366  1.00  0.00     0.000 C 
ENDBRANCH   1   4
TORSDOF 2
