REMARK  2 active torsions:
REMARK  status: ('A' for Active; 'I' for Inactive)
REMARK    1  A    between atoms: C_2  and  C_3 
REMARK    2  A    between atoms: C_3  and  C_4 
ROOT
HETATM    1  C   LIG     1      -0.051   0.074  -0.663  1.00  0.00     0.030 C 
ENDROOT
BRANCH   1   2
HETATM    2  C   LIG     1      -1.125   0.551   0.321  1.00  0.00     0.096 C 
HETATM    3 CL   LIG     1      -1.987  -0.824   1.062  1.00  0.00    -0.114 Cl
ENDBRANCH   1   2
BRANCH   1   4
HETATM    4  C   LIG     1       1.131  -0.615   0.027  1.00  0.00     0.069 C 
HETATM    5 BR   LIG     1       2.208   0.650   1.032  1.00  0.00    -0.081 Br
ENDBRANCH   1   4
TORSDOF 2
