REMARK  2 active torsions:
REMARK  status: ('A' for Active; 'I' for Inactive)
REMARK    1  A    between atoms: O_2  and  C_3 
REMARK    2  A    between atoms: C_3  and  O_4 
ROOT
HETATM    1  C   LIG     1       0.001  -0.021   0.044  1.00  0.00     0.294 C 
ENDROOT
BRANCH   1   2
HETATM    2  O   LIG     1      -1.125  -0.509   0.741  1.00  0.00    -0.325 OA
HETATM    3  C   LIG     1      -2.285  -0.307  -0.037  1.00  0.00     0.177 C 
ENDBRANCH   1   2
BRANCH   1   4
HETATM    4  O   LIG     1       1.143  -0.234   0.843  1.00  0.00    -0.325 OA
HETATM    5  C   LIG     1       2.286   0.245   0.170  1.00  0.00     0.177 C 
ENDBRANCH   1   4
TORSDOF 2
