REMARK  0 active torsions:
REMARK  status: ('A' for Active; 'I' for Inactive)
ROOT
HETATM    1  C   LIG     1      -1.974   0.354  -0.455  1.00  0.00     0.040 C 
HETATM    2  C   LIG     1      -0.996  -0.322   0.516  1.00  0.00     0.292 C 
HETATM    3  C   LIG     1      -0.041   0.695   1.172  1.00  0.00     0.326 C 
HETATM    4  N   LIG     1       0.929   1.203   0.196  1.00  0.00     0.344 N 
HETATM    5  C   LIG     1       1.715   0.094  -0.353  1.00  0.00     0.328 C 
HETATM    6  C   LIG     1       0.793  -0.906  -1.058  1.00  0.00     0.328 C 
HETATM    7  N   LIG     1      -0.252  -1.407  -0.151  1.00  0.00     0.341 N 
ENDROOT
TORSDOF 0
