REMARK  2 active torsions:
REMARK  status: ('A' for Active; 'I' for Inactive)
REMARK    1  A    between atoms: C_2  and  C_3 
REMARK    2  A    between atoms: C_3  and  C_4 
ROOT
HETATM    1  C   LIG     1       0.557   0.105   0.797  1.00  0.00     0.013 C 
ENDROOT
BRANCH   1   2
HETATM    2  C   LIG     1      -0.978   0.011   0.755  1.00  0.00     0.001 C 
HETATM    3  C   LIG     1      -1.576   0.522  -0.554  1.00  0.00     0.000 C 
ENDBRANCH   1   2
BRANCH   1   4
HETATM    4  C   LIG     1       1.262  -0.875  -0.155  1.00  0.00     0.069 C 
HETATM    5  S   LIG     1       1.499  -0.160  -1.815  1.00  0.00    -0.082 SA
ENDBRANCH   1   4
TORSDOF 2
