REMARK  2 active torsions:
REMARK  status: ('A' for Active; 'I' for Inactive)
REMARK    1  A    between atoms: C_2  and  C_3 
REMARK    2  A    between atoms: C_3  and  C_4 
ROOT
HETATM    1  C   LIG     1      -0.458  -0.105  -0.531  1.00  0.00     0.012 C 
ENDROOT
BRANCH   1   2
HETATM    2  C   LIG     1       0.532   0.122   0.617  1.00  0.00     0.001 C 
HETATM    3  C   LIG     1       1.970   0.151   0.107  1.00  0.00     0.000 C 
ENDBRANCH   1   2
BRANCH   1   4
HETATM    4  C   LIG     1      -1.896  -0.134  -0.018  1.00  0.00     0.068 C 
HETATM    5 BR   LIG     1      -3.123  -0.422  -1.490  1.00  0.00    -0.081 Br
ENDBRANCH   1   4
TORSDOF 2
