REMARK  0 active torsions:
REMARK  status: ('A' for Active; 'I' for Inactive)
ROOT
HETATM    1  C   LIG     1       1.092  -0.565   0.037  1.00  0.00     0.123 A 
HETATM    2  C   LIG     1       0.650   0.690  -0.325  1.00  0.00     0.029 A 
HETATM    3  C   LIG     1      -0.720   0.665  -0.184  1.00  0.00     0.029 A 
HETATM    4  C   LIG     1      -1.032  -0.604   0.256  1.00  0.00     0.123 A 
HETATM    5  O   LIG     1       0.067  -1.312   0.378  1.00  0.00    -0.303 OA
ENDROOT
TORSDOF 0
