REMARK  2 active torsions:
REMARK  status: ('A' for Active; 'I' for Inactive)
REMARK    1  A    between atoms: C_3  and  C_4 
REMARK    2  A    between atoms: C_5  and  C_6 
ROOT
HETATM    1  C   LIG     1      -0.180   0.488   0.472  1.00  0.00     0.006 C 
HETATM    2  C   LIG     1      -1.514   0.612   0.542  1.00  0.00     0.070 C 
ENDROOT
BRANCH   1   3
HETATM    3  C   LIG     1       0.554  -0.148  -0.646  1.00  0.00    -0.004 C 
HETATM    4  C   LIG     1       1.850  -0.480  -0.580  1.00  0.00    -0.026 C 
HETATM    5  C   LIG     1       2.698  -0.287   0.641  1.00  0.00     0.031 C 
ENDBRANCH   1   3
BRANCH   2   6
HETATM    6  C   LIG     1      -2.498   0.015  -0.382  1.00  0.00     0.211 C 
HETATM    7  O   LIG     1      -3.798   0.509  -0.391  1.00  0.00    -0.644 OA
HETATM    8  O   LIG     1      -2.204  -0.966  -1.116  1.00  0.00    -0.644 OA
ENDBRANCH   2   6
TORSDOF 2
