REMARK  3 active torsions:
REMARK  status: ('A' for Active; 'I' for Inactive)
REMARK    1  A    between atoms: C_2  and  C_3 
REMARK    2  A    between atoms: C_3  and  C_4 
REMARK    3  A    between atoms: C_4  and  C_5 
ROOT
HETATM    1  C   LIG     1       0.982   0.370  -0.040  1.00  0.00     0.012 C 
ENDROOT
BRANCH   1   2
HETATM    2  C   LIG     1       2.371  -0.118   0.369  1.00  0.00     0.068 C 
HETATM    3 BR   LIG     1       3.623   1.360   0.366  1.00  0.00    -0.081 Br
ENDBRANCH   1   2
BRANCH   1   4
HETATM    4  C   LIG     1      -0.030  -0.785  -0.034  1.00  0.00     0.001 C 
BRANCH   4   5
HETATM    5  C   LIG     1      -1.411  -0.361  -0.557  1.00  0.00     0.000 C 
HETATM    6  C   LIG     1      -2.152   0.562   0.410  1.00  0.00     0.000 C 
ENDBRANCH   4   5
ENDBRANCH   1   4
TORSDOF 3
