REMARK  10 active torsions:
REMARK  status: ('A' for Active; 'I' for Inactive)
REMARK    1  A    between atoms: C_2  and  C_3 
REMARK    2  A    between atoms: C_3  and  C_4 
REMARK    3  A    between atoms: C_4  and  C_5 
REMARK    4  A    between atoms: C_5  and  C_6 
REMARK    5  A    between atoms: C_6  and  C_7 
REMARK    6  A    between atoms: C_7  and  C_8 
REMARK    7  A    between atoms: C_8  and  C_9 
REMARK    8  A    between atoms: C_9  and  C_10 
REMARK    9  A    between atoms: C_10  and  O_11 
REMARK   10  A    between atoms: O_11  and  C_12 
ROOT
HETATM    1  C   LIG     1       0.048   1.216  -0.725  1.00  0.00     0.001 C 
ENDROOT
BRANCH   1   2
HETATM    2  C   LIG     1      -0.628   0.576   0.497  1.00  0.00     0.000 C 
BRANCH   2   3
HETATM    3  C   LIG     1      -2.144   0.465   0.290  1.00  0.00     0.000 C 
BRANCH   3   4
HETATM    4  C   LIG     1      -2.818  -0.194   1.503  1.00  0.00     0.000 C 
BRANCH   4   5
HETATM    5  C   LIG     1      -4.351  -0.207   1.395  1.00  0.00     0.000 C 
BRANCH   5   6
HETATM    6  C   LIG     1      -4.861  -1.190   0.332  1.00  0.00     0.000 C 
HETATM    7  C   LIG     1      -6.384  -1.274   0.347  1.00  0.00     0.000 C 
ENDBRANCH   5   6
ENDBRANCH   4   5
ENDBRANCH   3   4
ENDBRANCH   2   3
ENDBRANCH   1   2
BRANCH   1   8
HETATM    8  C   LIG     1       1.549   1.465  -0.507  1.00  0.00     0.010 C 
BRANCH   8   9
HETATM    9  C   LIG     1       2.365   0.165  -0.479  1.00  0.00     0.096 C 
BRANCH   9  10
HETATM   10  C   LIG     1       3.832   0.460  -0.420  1.00  0.00     0.272 C 
HETATM   11  O   LIG     1       4.312   1.048   0.587  1.00  0.00    -0.264 OA
BRANCH  10  12
HETATM   12  O   LIG     1       4.655   0.077  -1.486  1.00  0.00    -0.302 OA
BRANCH  12  13
HETATM   13  C   LIG     1       6.067   0.275  -1.497  1.00  0.00     0.152 C 
HETATM   14  C   LIG     1       6.761  -0.747  -0.604  1.00  0.00     0.035 C 
ENDBRANCH  12  13
ENDBRANCH  10  12
ENDBRANCH   9  10
ENDBRANCH   8   9
ENDBRANCH   1   8
TORSDOF 10
