REMARK  4 active torsions:
REMARK  status: ('A' for Active; 'I' for Inactive)
REMARK    1  A    between atoms: C_2  and  C_3 
REMARK    2  A    between atoms: C_3  and  C_4 
REMARK    3  A    between atoms: C_4  and  C_5 
REMARK    4  A    between atoms: C_5  and  C_6 
ROOT
HETATM    1  C   LIG     1       0.746  -1.062  -0.751  1.00  0.00     0.065 C 
ENDROOT
BRANCH   1   2
HETATM    2  C   LIG     1       2.057  -0.741  -0.084  1.00  0.00     0.151 C 
HETATM    3  C   LIG     1       2.705   0.595  -0.286  1.00  0.00     0.072 C 
HETATM    4  O   LIG     1       2.604  -1.580   0.615  1.00  0.00    -0.296 OA
ENDBRANCH   1   2
BRANCH   1   5
HETATM    5  C   LIG     1      -0.374  -1.331   0.268  1.00  0.00     0.008 C 
BRANCH   5   6
HETATM    6  C   LIG     1      -0.705  -0.131   1.179  1.00  0.00     0.000 C 
BRANCH   6   7
HETATM    7  C   LIG     1      -1.236   1.113   0.444  1.00  0.00     0.000 C 
HETATM    8  C   LIG     1      -2.558   0.861  -0.279  1.00  0.00     0.000 C 
ENDBRANCH   6   7
ENDBRANCH   5   6
ENDBRANCH   1   5
TORSDOF 4
