REMARK  0 active torsions:
REMARK  status: ('A' for Active; 'I' for Inactive)
ROOT
HETATM    1  C   LIG     1      -1.116  -0.953   0.185  1.00  0.00     0.000 C 
HETATM    2  C   LIG     1       0.238  -1.412  -0.370  1.00  0.00     0.000 C 
HETATM    3  C   LIG     1       1.376  -0.522   0.148  1.00  0.00     0.000 C 
HETATM    4  C   LIG     1       1.116   0.953  -0.185  1.00  0.00     0.000 C 
HETATM    5  C   LIG     1      -0.238   1.412   0.370  1.00  0.00     0.000 C 
HETATM    6  C   LIG     1      -1.376   0.522  -0.148  1.00  0.00     0.000 C 
ENDROOT
TORSDOF 0
