REMARK  3 active torsions:
REMARK  status: ('A' for Active; 'I' for Inactive)
REMARK    1  A    between atoms: C_2  and  C_3 
REMARK    2  A    between atoms: C_3  and  C_4 
REMARK    3  A    between atoms: C_4  and  C_5 
ROOT
HETATM    1  C   LIG     1       0.182   0.470   0.557  1.00  0.00     0.008 C 
ENDROOT
BRANCH   1   2
HETATM    2  C   LIG     1      -1.261  -0.053   0.623  1.00  0.00     0.001 C 
HETATM    3  C   LIG     1      -1.948  -0.067  -0.742  1.00  0.00     0.000 C 
ENDBRANCH   1   2
BRANCH   1   4
HETATM    4  C   LIG     1       1.135  -0.516  -0.131  1.00  0.00     0.072 C 
BRANCH   4   5
HETATM    5  C   LIG     1       2.546  -0.015  -0.059  1.00  0.00     0.207 C 
HETATM    6  O   LIG     1       3.172   0.223  -1.080  1.00  0.00    -0.288 OA
ENDBRANCH   4   5
ENDBRANCH   1   4
TORSDOF 3
