REMARK  9 active torsions:
REMARK  status: ('A' for Active; 'I' for Inactive)
REMARK    1  A    between atoms: C_2  and  C_3 
REMARK    2  A    between atoms: C_3  and  C_4 
REMARK    3  A    between atoms: C_4  and  C_5 
REMARK    4  A    between atoms: C_5  and  C_6 
REMARK    5  A    between atoms: C_6  and  C_7 
REMARK    6  A    between atoms: C_7  and  C_8 
REMARK    7  A    between atoms: C_8  and  C_9 
REMARK    8  A    between atoms: C_9  and  C_10 
REMARK    9  A    between atoms: C_10  and  O_11 
ROOT
HETATM    1  C   LIG     1       0.593   0.421  -0.489  1.00  0.00     0.001 C 
ENDROOT
BRANCH   1   2
HETATM    2  C   LIG     1       0.025  -0.211   0.799  1.00  0.00     0.000 C 
BRANCH   2   3
HETATM    3  C   LIG     1      -0.900  -1.423   0.578  1.00  0.00     0.000 C 
BRANCH   3   4
HETATM    4  C   LIG     1      -2.192  -1.110  -0.200  1.00  0.00     0.000 C 
BRANCH   4   5
HETATM    5  C   LIG     1      -3.188  -0.227   0.586  1.00  0.00     0.000 C 
BRANCH   5   6
HETATM    6  C   LIG     1      -3.210   1.241   0.127  1.00  0.00     0.000 C 
HETATM    7  C   LIG     1      -3.934   1.428  -1.207  1.00  0.00     0.000 C 
ENDBRANCH   5   6
ENDBRANCH   4   5
ENDBRANCH   3   4
ENDBRANCH   2   3
ENDBRANCH   1   2
BRANCH   1   8
HETATM    8  C   LIG     1       1.387  -0.540  -1.397  1.00  0.00     0.010 C 
BRANCH   8   9
HETATM    9  C   LIG     1       2.591  -1.209  -0.714  1.00  0.00     0.096 C 
BRANCH   9  10
HETATM   10  C   LIG     1       3.582  -0.206  -0.206  1.00  0.00     0.272 C 
HETATM   11  O   LIG     1       4.185   0.546  -1.019  1.00  0.00    -0.264 OA
BRANCH  10  12
HETATM   12  O   LIG     1       3.828  -0.117   1.167  1.00  0.00    -0.299 OA
HETATM   13  C   LIG     1       4.737   0.826   1.721  1.00  0.00     0.184 C 
ENDBRANCH  10  12
ENDBRANCH   9  10
ENDBRANCH   8   9
ENDBRANCH   1   8
TORSDOF 9
