REMARK  4 active torsions:
REMARK  status: ('A' for Active; 'I' for Inactive)
REMARK    1  A    between atoms: C_2  and  C_3 
REMARK    2  A    between atoms: C_3  and  C_4 
REMARK    3  A    between atoms: C_4  and  C_5 
REMARK    4  A    between atoms: C_5  and  C_6 
ROOT
HETATM    1  C   LIG     1       0.143   0.503   0.950  1.00  0.00     0.022 C 
ENDROOT
BRANCH   1   2
HETATM    2  C   LIG     1      -0.458   1.231  -0.264  1.00  0.00     0.098 C 
BRANCH   2   3
HETATM    3  C   LIG     1      -1.842   0.750  -0.574  1.00  0.00     0.185 C 
HETATM    4  O   LIG     1      -2.047  -0.146  -1.618  1.00  0.00    -0.647 OA
HETATM    5  O   LIG     1      -2.816   1.135   0.127  1.00  0.00    -0.647 OA
ENDBRANCH   2   3
ENDBRANCH   1   2
BRANCH   1   6
HETATM    6  C   LIG     1       0.444  -0.983   0.685  1.00  0.00     0.098 C 
BRANCH   6   7
HETATM    7  C   LIG     1       1.621  -1.211  -0.223  1.00  0.00     0.185 C 
HETATM    8  O   LIG     1       2.412  -0.152  -0.662  1.00  0.00    -0.647 OA
HETATM    9  O   LIG     1       1.906  -2.387  -0.576  1.00  0.00    -0.647 OA
ENDBRANCH   6   7
ENDBRANCH   1   6
TORSDOF 4
