REMARK  0 active torsions:
REMARK  status: ('A' for Active; 'I' for Inactive)
ROOT
HETATM    1  C   LIG     1      -0.342   1.521   0.137  1.00  0.00    -0.030 C 
HETATM    2  C   LIG     1       0.963   1.233   0.056  1.00  0.00    -0.030 C 
HETATM    3  C   LIG     1       1.386  -0.123  -0.438  1.00  0.00     0.026 C 
HETATM    4  C   LIG     1       0.540  -1.227   0.225  1.00  0.00     0.005 C 
HETATM    5  C   LIG     1      -0.975  -0.892   0.319  1.00  0.00     0.005 C 
HETATM    6  C   LIG     1      -1.350   0.482  -0.268  1.00  0.00     0.026 C 
ENDROOT
TORSDOF 0
