REMARK  3 active torsions:
REMARK  status: ('A' for Active; 'I' for Inactive)
REMARK    1  A    between atoms: C_2  and  C_3 
REMARK    2  A    between atoms: C_3  and  C_4 
REMARK    3  A    between atoms: C_4  and  C_5 
ROOT
HETATM    1  C   LIG     1       0.829  -0.025   0.151  1.00  0.00     0.065 C 
ENDROOT
BRANCH   1   2
HETATM    2  C   LIG     1       2.227   0.095  -0.408  1.00  0.00     0.151 C 
HETATM    3  C   LIG     1       3.411  -0.109   0.488  1.00  0.00     0.072 C 
HETATM    4  O   LIG     1       2.414   0.356  -1.587  1.00  0.00    -0.296 OA
ENDBRANCH   1   2
BRANCH   1   5
HETATM    5  C   LIG     1      -0.264   0.215  -0.910  1.00  0.00     0.008 C 
BRANCH   5   6
HETATM    6  C   LIG     1      -1.713   0.102  -0.379  1.00  0.00     0.000 C 
HETATM    7  C   LIG     1      -2.033   1.162   0.684  1.00  0.00     0.000 C 
HETATM    8  C   LIG     1      -2.042  -1.306   0.135  1.00  0.00     0.000 C 
ENDBRANCH   5   6
ENDBRANCH   1   5
TORSDOF 3
