REMARK  3 active torsions:
REMARK  status: ('A' for Active; 'I' for Inactive)
REMARK    1  A    between atoms: C_2  and  C_3 
REMARK    2  A    between atoms: C_3  and  C_4 
REMARK    3  A    between atoms: C_4  and  C_5 
ROOT
HETATM    1  C   LIG     1       0.627  -0.907  -0.069  1.00  0.00     0.000 C 
ENDROOT
BRANCH   1   2
HETATM    2  C   LIG     1       1.943  -0.679   0.690  1.00  0.00     0.000 C 
HETATM    3  C   LIG     1       2.660   0.601   0.258  1.00  0.00     0.000 C 
ENDBRANCH   1   2
BRANCH   1   4
HETATM    4  C   LIG     1      -0.470   0.087   0.338  1.00  0.00     0.000 C 
BRANCH   4   5
HETATM    5  C   LIG     1      -1.799  -0.251  -0.348  1.00  0.00     0.000 C 
HETATM    6  C   LIG     1      -2.891   0.739   0.046  1.00  0.00     0.000 C 
ENDBRANCH   4   5
ENDBRANCH   1   4
TORSDOF 3
