REMARK  0 active torsions:
REMARK  status: ('A' for Active; 'I' for Inactive)
ROOT
HETATM    1  C   LIG     1       1.207   0.474  -0.053  1.00  0.00     0.021 A 
HETATM    2  C   LIG     1       1.188  -0.923  -0.025  1.00  0.00     0.099 A 
HETATM    3  N   LIG     1       0.002  -1.587   0.031  1.00  0.00    -0.242 NA
HETATM    4  C   LIG     1      -1.186  -0.923   0.061  1.00  0.00     0.099 A 
HETATM    5  C   LIG     1      -1.208   0.474   0.035  1.00  0.00     0.021 A 
HETATM    6  C   LIG     1      -0.001   1.174  -0.023  1.00  0.00     0.003 A 
ENDROOT
TORSDOF 0
