REMARK  0 active torsions:
REMARK  status: ('A' for Active; 'I' for Inactive)
ROOT
HETATM    1  C   LIG     1       1.088   0.746  -0.255  1.00  0.00     0.322 C 
HETATM    2  C   LIG     1       1.085  -0.160   0.988  1.00  0.00     0.181 C 
HETATM    3  O   LIG     1       0.299  -1.335   0.840  1.00  0.00    -0.350 OA
HETATM    4  C   LIG     1      -0.769  -1.196  -0.088  1.00  0.00     0.181 C 
HETATM    5  C   LIG     1      -1.315   0.240  -0.187  1.00  0.00     0.322 C 
HETATM    6  N   LIG     1      -0.272   1.196  -0.594  1.00  0.00     0.345 N 
ENDROOT
TORSDOF 0
