REMARK  3 active torsions:
REMARK  status: ('A' for Active; 'I' for Inactive)
REMARK    1  A    between atoms: C_2  and  O_3 
REMARK    2  A    between atoms: O_3  and  C_4 
REMARK    3  A    between atoms: C_4  and  C_5 
ROOT
HETATM    1  O   LIG     1       0.915   0.374   1.088  1.00  0.00    -0.294 OA
ENDROOT
BRANCH   1   2
HETATM    2  C   LIG     1       2.074  -0.383   0.888  1.00  0.00     0.360 C 
HETATM    3  O   LIG     1       2.611  -0.466  -0.249  1.00  0.00    -0.253 OA
ENDBRANCH   1   2
BRANCH   1   4
HETATM    4  C   LIG     1       0.232   1.057   0.038  1.00  0.00     0.152 C 
BRANCH   4   5
HETATM    5  C   LIG     1      -0.559   0.080  -0.839  1.00  0.00     0.033 C 
HETATM    6  C   LIG     1      -1.638  -0.651  -0.044  1.00  0.00     0.003 C 
ENDBRANCH   4   5
ENDBRANCH   1   4
TORSDOF 3
