REMARK  0 active torsions:
REMARK  status: ('A' for Active; 'I' for Inactive)
ROOT
HETATM    1  C   LIG     1      -1.477  -0.334  -0.145  1.00  0.00     0.290 C 
HETATM    2  C   LIG     1      -0.905   1.060   0.147  1.00  0.00     0.038 C 
HETATM    3  C   LIG     1       0.528   1.173  -0.378  1.00  0.00     0.004 C 
HETATM    4  C   LIG     1       1.392   0.032   0.166  1.00  0.00     0.038 C 
HETATM    5  C   LIG     1       0.737  -1.325  -0.127  1.00  0.00     0.290 C 
HETATM    6  N   LIG     1      -0.626  -1.392   0.420  1.00  0.00     0.339 N 
ENDROOT
TORSDOF 0
