REMARK  0 active torsions:
REMARK  status: ('A' for Active; 'I' for Inactive)
ROOT
HETATM    1  C   LIG     1       1.251  -0.272   0.648  1.00  0.00     0.328 C 
HETATM    2  C   LIG     1       0.966   1.060  -0.059  1.00  0.00     0.328 C 
HETATM    3  N   LIG     1      -0.464   1.413  -0.006  1.00  0.00     0.344 N 
HETATM    4  C   LIG     1      -1.365   0.246   0.051  1.00  0.00     0.328 C 
HETATM    5  C   LIG     1      -0.748  -0.996  -0.612  1.00  0.00     0.328 C 
HETATM    6  N   LIG     1       0.524  -1.391   0.021  1.00  0.00     0.344 N 
ENDROOT
TORSDOF 0
