REMARK  0 active torsions:
REMARK  status: ('A' for Active; 'I' for Inactive)
ROOT
HETATM    1  C   LIG     1       1.257   0.586   0.056  1.00  0.00     0.035 A 
HETATM    2  C   LIG     1       0.697  -0.683   0.024  1.00  0.00     0.007 A 
HETATM    3  C   LIG     1      -0.702  -0.677  -0.033  1.00  0.00     0.007 A 
HETATM    4  C   LIG     1      -1.253   0.597  -0.047  1.00  0.00     0.035 A 
HETATM    5  S   LIG     1       0.007   1.708   0.012  1.00  0.00    -0.086 SA
ENDROOT
TORSDOF 0
