REMARK  3 active torsions:
REMARK  status: ('A' for Active; 'I' for Inactive)
REMARK    1  A    between atoms: C_2  and  C_3 
REMARK    2  A    between atoms: C_3  and  C_4 
REMARK    3  A    between atoms: C_4  and  C_5 
ROOT
HETATM    1  C   LIG     1      -0.600  -0.424  -0.555  1.00  0.00     0.109 C 
ENDROOT
BRANCH   1   2
HETATM    2  C   LIG     1      -1.950  -0.212   0.054  1.00  0.00     0.186 C 
HETATM    3  O   LIG     1      -2.599   1.008  -0.110  1.00  0.00    -0.647 OA
HETATM    4  O   LIG     1      -2.481  -1.120   0.747  1.00  0.00    -0.647 OA
ENDBRANCH   1   2
BRANCH   1   5
HETATM    5  C   LIG     1       0.501   0.039   0.408  1.00  0.00     0.109 C 
BRANCH   5   6
HETATM    6  C   LIG     1       1.884  -0.145  -0.150  1.00  0.00     0.186 C 
HETATM    7  O   LIG     1       2.979   0.234   0.620  1.00  0.00    -0.647 OA
HETATM    8  O   LIG     1       2.068  -0.634  -1.298  1.00  0.00    -0.647 OA
ENDBRANCH   5   6
ENDBRANCH   1   5
TORSDOF 3
