REMARK  5 active torsions:
REMARK  status: ('A' for Active; 'I' for Inactive)
REMARK    1  A    between atoms: C_21  and  C_23 
REMARK    2  A    between atoms: C_23  and  C_24 
REMARK    3  A    between atoms: C_24  and  O_25 
REMARK    4  A    between atoms: O_25  and  C_26 
REMARK    5  A    between atoms: C_26  and  C_27 
ROOT
HETATM    1  C   LIG     1       4.787   0.270  -2.180  1.00  0.00     0.009 C 
HETATM    2  C   LIG     1       4.136   0.745  -0.860  1.00  0.00     0.036 C 
HETATM    3  C   LIG     1       4.162   2.274  -0.916  1.00  0.00    -0.020 C 
HETATM    4  C   LIG     1       5.114   3.006  -0.332  1.00  0.00     0.038 C 
HETATM    5  C   LIG     1       2.625   0.265  -0.682  1.00  0.00     0.038 C 
HETATM    6  C   LIG     1       2.111  -0.822  -1.662  1.00  0.00     0.153 C 
HETATM    7  O   LIG     1       2.790  -2.037  -1.489  1.00  0.00    -0.223 OA
HETATM    8  C   LIG     1       0.590  -1.016  -1.509  1.00  0.00     0.036 C 
HETATM    9  C   LIG     1       2.304  -0.124   0.788  1.00  0.00     0.004 C 
HETATM   10  C   LIG     1       3.249  -1.218   1.364  1.00  0.00     0.004 C 
HETATM   11  C   LIG     1       4.691  -1.157   0.829  1.00  0.00     0.022 C 
HETATM   12  C   LIG     1       4.999   0.213   0.295  1.00  0.00    -0.038 C 
HETATM   13  C   LIG     1       5.958   0.954   0.873  1.00  0.00     0.034 C 
HETATM   14  C   LIG     1       6.114   2.367   0.524  1.00  0.00     0.195 C 
HETATM   15  O   LIG     1       7.069   3.038   0.997  1.00  0.00    -0.287 OA
HETATM   16  C   LIG     1       0.799  -0.464   1.018  1.00  0.00     0.003 C 
HETATM   17  C   LIG     1      -0.062   0.805   1.168  1.00  0.00     0.003 C 
HETATM   18  C   LIG     1      -1.356   0.566   0.403  1.00  0.00     0.038 C 
HETATM   19  C   LIG     1       0.094  -1.347  -0.060  1.00  0.00     0.035 C 
HETATM   20  C   LIG     1       0.288  -2.865   0.227  1.00  0.00     0.003 C 
HETATM   21  C   LIG     1      -1.415  -0.947   0.113  1.00  0.00     0.180 C 
HETATM   22  O   LIG     1      -1.936  -1.589   1.257  1.00  0.00    -0.218 OA
ENDROOT
BRANCH  21  23
HETATM   23  C   LIG     1      -2.292  -1.322  -1.094  1.00  0.00     0.208 C 
HETATM   24  O   LIG     1      -2.417  -2.502  -1.384  1.00  0.00    -0.291 OA
BRANCH  23  25
HETATM   25  C   LIG     1      -3.056  -0.312  -1.917  1.00  0.00     0.218 C 
BRANCH  25  26
HETATM   26  O   LIG     1      -3.946   0.445  -1.099  1.00  0.00    -0.294 OA
BRANCH  26  27
HETATM   27  C   LIG     1      -5.057  -0.108  -0.448  1.00  0.00     0.271 C 
HETATM   28  O   LIG     1      -5.328  -1.333  -0.593  1.00  0.00    -0.264 OA
BRANCH  27  29
HETATM   29  C   LIG     1      -5.893   0.742   0.489  1.00  0.00     0.078 C 
HETATM   30  C   LIG     1      -5.612   2.240   0.255  1.00  0.00     0.010 C 
HETATM   31  C   LIG     1      -7.391   0.471   0.242  1.00  0.00     0.010 C 
HETATM   32  C   LIG     1      -5.537   0.381   1.942  1.00  0.00     0.010 C 
ENDBRANCH  27  29
ENDBRANCH  26  27
ENDBRANCH  25  26
ENDBRANCH  23  25
ENDBRANCH  21  23
TORSDOF 5
