REMARK  4 active torsions:
REMARK  status: ('A' for Active; 'I' for Inactive)
REMARK    1  A    between atoms: C_2  and  C_3 
REMARK    2  A    between atoms: C_3  and  C_4 
REMARK    3  A    between atoms: C_4  and  C_5 
REMARK    4  A    between atoms: C_5  and  C_6 
ROOT
HETATM    1  C   LIG     1      -0.455  -1.237  -0.765  1.00  0.00     0.003 C 
ENDROOT
BRANCH   1   2
HETATM    2  C   LIG     1       0.695  -0.886   0.202  1.00  0.00     0.000 C 
BRANCH   2   3
HETATM    3  C   LIG     1       1.470   0.361  -0.247  1.00  0.00     0.000 C 
HETATM    4  C   LIG     1       2.560   0.725   0.758  1.00  0.00     0.000 C 
ENDBRANCH   2   3
ENDBRANCH   1   2
BRANCH   1   5
HETATM    5  C   LIG     1      -1.848  -0.828  -0.253  1.00  0.00     0.036 C 
BRANCH   5   6
HETATM    6  C   LIG     1      -2.070   0.687  -0.214  1.00  0.00     0.182 C 
HETATM    7  O   LIG     1      -1.469   1.236   0.926  1.00  0.00    -0.221 OA
ENDBRANCH   5   6
ENDBRANCH   1   5
TORSDOF 4
