REMARK  5 active torsions:
REMARK  status: ('A' for Active; 'I' for Inactive)
REMARK    1  A    between atoms: C_2  and  C_3 
REMARK    2  A    between atoms: C_3  and  C_4 
REMARK    3  A    between atoms: C_4  and  C_5 
REMARK    4  A    between atoms: C_5  and  C_6 
REMARK    5  A    between atoms: C_6  and  C_7 
ROOT
HETATM    1  C   LIG     1       0.477  -0.587  -0.206  1.00  0.00     0.008 C 
ENDROOT
BRANCH   1   2
HETATM    2  C   LIG     1       1.683  -0.726   0.728  1.00  0.00     0.065 C 
BRANCH   2   3
HETATM    3  C   LIG     1       2.920  -0.152   0.092  1.00  0.00     0.151 C 
HETATM    4  C   LIG     1       3.576   1.066   0.669  1.00  0.00     0.072 C 
HETATM    5  O   LIG     1       3.400  -0.689  -0.895  1.00  0.00    -0.296 OA
ENDBRANCH   2   3
ENDBRANCH   1   2
BRANCH   1   6
HETATM    6  C   LIG     1      -0.792  -1.163   0.441  1.00  0.00     0.000 C 
BRANCH   6   7
HETATM    7  C   LIG     1      -2.034  -0.997  -0.459  1.00  0.00     0.000 C 
BRANCH   7   8
HETATM    8  C   LIG     1      -2.949   0.166  -0.038  1.00  0.00     0.000 C 
HETATM    9  C   LIG     1      -2.301   1.536  -0.226  1.00  0.00     0.000 C 
ENDBRANCH   7   8
ENDBRANCH   6   7
ENDBRANCH   1   6
TORSDOF 5
