REMARK  5 active torsions:
REMARK  status: ('A' for Active; 'I' for Inactive)
REMARK    1  A    between atoms: C_2  and  C_3 
REMARK    2  A    between atoms: C_3  and  C_4 
REMARK    3  A    between atoms: C_4  and  C_5 
REMARK    4  A    between atoms: C_5  and  C_6 
REMARK    5  A    between atoms: C_6  and  C_7 
ROOT
HETATM    1  C   LIG     1      -0.439  -0.938  -0.271  1.00  0.00     0.000 C 
ENDROOT
BRANCH   1   2
HETATM    2  C   LIG     1      -1.835  -1.466   0.107  1.00  0.00     0.000 C 
BRANCH   2   3
HETATM    3  C   LIG     1      -2.735  -0.446   0.828  1.00  0.00     0.000 C 
HETATM    4  C   LIG     1      -3.047   0.783  -0.024  1.00  0.00     0.000 C 
ENDBRANCH   2   3
ENDBRANCH   1   2
BRANCH   1   5
HETATM    5  C   LIG     1       0.396  -0.529   0.955  1.00  0.00     0.000 C 
BRANCH   5   6
HETATM    6  C   LIG     1       1.873  -0.283   0.607  1.00  0.00     0.000 C 
BRANCH   6   7
HETATM    7  C   LIG     1       2.075   0.978  -0.246  1.00  0.00     0.000 C 
HETATM    8  C   LIG     1       3.558   1.263  -0.463  1.00  0.00     0.000 C 
ENDBRANCH   6   7
ENDBRANCH   5   6
ENDBRANCH   1   5
TORSDOF 5
