REMARK  4 active torsions:
REMARK  status: ('A' for Active; 'I' for Inactive)
REMARK    1  A    between atoms: C_2  and  C_3 
REMARK    2  A    between atoms: C_3  and  C_4 
REMARK    3  A    between atoms: C_4  and  C_5 
REMARK    4  A    between atoms: C_5  and  C_6 
ROOT
HETATM    1  C   LIG     1      -0.785   0.654  -0.437  1.00  0.00     0.001 C 
ENDROOT
BRANCH   1   2
HETATM    2  C   LIG     1      -1.453  -0.461   0.386  1.00  0.00     0.012 C 
BRANCH   2   3
HETATM    3  C   LIG     1      -2.963  -0.524   0.143  1.00  0.00     0.068 C 
HETATM    4 BR   LIG     1      -3.881   0.975   0.968  1.00  0.00    -0.081 Br
ENDBRANCH   2   3
ENDBRANCH   1   2
BRANCH   1   5
HETATM    5  C   LIG     1       0.712   0.804  -0.122  1.00  0.00     0.000 C 
BRANCH   5   6
HETATM    6  C   LIG     1       1.551  -0.362  -0.664  1.00  0.00     0.000 C 
HETATM    7  C   LIG     1       3.041  -0.112  -0.452  1.00  0.00     0.000 C 
ENDBRANCH   5   6
ENDBRANCH   1   5
TORSDOF 4
