REMARK  5 active torsions:
REMARK  status: ('A' for Active; 'I' for Inactive)
REMARK    1  A    between atoms: C_2  and  C_3 
REMARK    2  A    between atoms: C_3  and  C_4 
REMARK    3  A    between atoms: C_4  and  C_5 
REMARK    4  A    between atoms: C_5  and  C_6 
REMARK    5  A    between atoms: C_6  and  C_7 
ROOT
HETATM    1  C   LIG     1      -0.312  -0.245   0.237  1.00  0.00     0.001 C 
ENDROOT
BRANCH   1   2
HETATM    2  C   LIG     1       1.053   0.412   0.003  1.00  0.00     0.000 C 
BRANCH   2   3
HETATM    3  C   LIG     1       2.159  -0.642  -0.111  1.00  0.00     0.000 C 
HETATM    4  C   LIG     1       3.520   0.008  -0.344  1.00  0.00     0.000 C 
ENDBRANCH   2   3
ENDBRANCH   1   2
BRANCH   1   5
HETATM    5  C   LIG     1      -1.420   0.813   0.352  1.00  0.00     0.008 C 
BRANCH   5   6
HETATM    6  C   LIG     1      -2.796   0.184   0.616  1.00  0.00     0.072 C 
BRANCH   6   7
HETATM    7  C   LIG     1      -3.338  -0.530  -0.588  1.00  0.00     0.207 C 
HETATM    8  O   LIG     1      -4.417  -1.096  -0.524  1.00  0.00    -0.288 OA
ENDBRANCH   6   7
ENDBRANCH   5   6
ENDBRANCH   1   5
TORSDOF 5
