REMARK  5 active torsions:
REMARK  status: ('A' for Active; 'I' for Inactive)
REMARK    1  A    between atoms: C_2  and  C_3 
REMARK    2  A    between atoms: C_3  and  C_4 
REMARK    3  A    between atoms: C_4  and  C_5 
REMARK    4  A    between atoms: C_5  and  C_6 
REMARK    5  A    between atoms: C_6  and  C_7 
ROOT
HETATM    1  C   LIG     1      -0.092  -0.927   0.710  1.00  0.00     0.000 C 
ENDROOT
BRANCH   1   2
HETATM    2  C   LIG     1       1.052  -0.202  -0.015  1.00  0.00     0.000 C 
BRANCH   2   3
HETATM    3  C   LIG     1       2.121   0.269   0.978  1.00  0.00     0.000 C 
HETATM    4  C   LIG     1       3.265   0.981   0.261  1.00  0.00     0.000 C 
ENDBRANCH   2   3
ENDBRANCH   1   2
BRANCH   1   5
HETATM    5  C   LIG     1      -1.204  -1.380  -0.261  1.00  0.00     0.003 C 
BRANCH   5   6
HETATM    6  C   LIG     1      -2.458  -0.488  -0.222  1.00  0.00     0.036 C 
BRANCH   6   7
HETATM    7  C   LIG     1      -2.221   0.935  -0.742  1.00  0.00     0.182 C 
HETATM    8  O   LIG     1      -1.716   0.919  -2.050  1.00  0.00    -0.221 OA
ENDBRANCH   6   7
ENDBRANCH   5   6
ENDBRANCH   1   5
TORSDOF 5
