REMARK  5 active torsions:
REMARK  status: ('A' for Active; 'I' for Inactive)
REMARK    1  A    between atoms: C_2  and  C_3 
REMARK    2  A    between atoms: C_3  and  C_4 
REMARK    3  A    between atoms: C_4  and  C_5 
REMARK    4  A    between atoms: C_5  and  C_6 
REMARK    5  A    between atoms: C_6  and  C_7 
ROOT
HETATM    1  C   LIG     1       0.122   0.130   0.710  1.00  0.00     0.000 C 
ENDROOT
BRANCH   1   2
HETATM    2  C   LIG     1       1.584  -0.340   0.783  1.00  0.00     0.000 C 
BRANCH   2   3
HETATM    3  C   LIG     1       2.533   0.541  -0.043  1.00  0.00     0.000 C 
HETATM    4  C   LIG     1       3.986   0.126   0.162  1.00  0.00     0.000 C 
ENDBRANCH   2   3
ENDBRANCH   1   2
BRANCH   1   5
HETATM    5  C   LIG     1      -0.531  -0.184  -0.647  1.00  0.00     0.002 C 
BRANCH   5   6
HETATM    6  C   LIG     1      -1.994   0.286  -0.719  1.00  0.00     0.041 C 
BRANCH   6   7
HETATM    7  C   LIG     1      -2.943  -0.597   0.108  1.00  0.00     0.338 C 
HETATM    8  N   LIG     1      -4.337  -0.207  -0.092  1.00  0.00     0.618 N 
ENDBRANCH   6   7
ENDBRANCH   5   6
ENDBRANCH   1   5
TORSDOF 5
