REMARK  6 active torsions:
REMARK  status: ('A' for Active; 'I' for Inactive)
REMARK    1  A    between atoms: C_2  and  C_3 
REMARK    2  A    between atoms: C_3  and  C_4 
REMARK    3  A    between atoms: C_4  and  C_5 
REMARK    4  A    between atoms: C_5  and  C_6 
REMARK    5  A    between atoms: C_6  and  C_7 
REMARK    6  A    between atoms: C_7  and  C_8 
ROOT
HETATM    1  C   LIG     1      -0.272  -1.352  -0.551  1.00  0.00     0.000 C 
ENDROOT
BRANCH   1   2
HETATM    2  C   LIG     1       0.797  -0.616   0.271  1.00  0.00     0.000 C 
BRANCH   2   3
HETATM    3  C   LIG     1       2.119  -0.525  -0.505  1.00  0.00     0.000 C 
BRANCH   3   4
HETATM    4  C   LIG     1       3.245   0.118   0.320  1.00  0.00     0.000 C 
HETATM    5  C   LIG     1       3.039   1.617   0.534  1.00  0.00     0.000 C 
ENDBRANCH   3   4
ENDBRANCH   2   3
ENDBRANCH   1   2
BRANCH   1   6
HETATM    6  C   LIG     1      -1.562  -1.622   0.246  1.00  0.00     0.002 C 
BRANCH   6   7
HETATM    7  C   LIG     1      -2.299  -0.363   0.736  1.00  0.00     0.041 C 
BRANCH   7   8
HETATM    8  C   LIG     1      -2.763   0.545  -0.409  1.00  0.00     0.338 C 
HETATM    9  N   LIG     1      -3.630   1.599   0.108  1.00  0.00     0.618 N 
ENDBRANCH   7   8
ENDBRANCH   6   7
ENDBRANCH   1   6
TORSDOF 6
