REMARK  4 active torsions:
REMARK  status: ('A' for Active; 'I' for Inactive)
REMARK    1  A    between atoms: C_2  and  C_3 
REMARK    2  A    between atoms: C_3  and  O_4 
REMARK    3  A    between atoms: O_4  and  C_5 
REMARK    4  A    between atoms: C_5  and  C_6 
ROOT
HETATM    1  O   LIG     1      -0.097   0.384   0.960  1.00  0.00    -0.354 OA
ENDROOT
BRANCH   1   2
HETATM    2  C   LIG     1       1.000   0.363   0.070  1.00  0.00     0.142 C 
BRANCH   2   3
HETATM    3  C   LIG     1       2.252  -0.062   0.835  1.00  0.00     0.032 C 
HETATM    4  C   LIG     1       3.476  -0.096  -0.077  1.00  0.00     0.003 C 
ENDBRANCH   2   3
ENDBRANCH   1   2
BRANCH   1   5
HETATM    5  C   LIG     1      -1.301   0.640   0.261  1.00  0.00     0.142 C 
BRANCH   5   6
HETATM    6  C   LIG     1      -2.026  -0.676  -0.037  1.00  0.00     0.032 C 
HETATM    7  C   LIG     1      -3.369  -0.427  -0.719  1.00  0.00     0.003 C 
ENDBRANCH   5   6
ENDBRANCH   1   5
TORSDOF 4
