REMARK  11 active torsions:
REMARK  status: ('A' for Active; 'I' for Inactive)
REMARK    1  A    between atoms: C_2  and  C_3 
REMARK    2  A    between atoms: C_3  and  C_4 
REMARK    3  A    between atoms: C_4  and  C_5 
REMARK    4  A    between atoms: C_5  and  C_6 
REMARK    5  A    between atoms: C_6  and  C_7 
REMARK    6  A    between atoms: C_7  and  C_8 
REMARK    7  A    between atoms: C_8  and  C_9 
REMARK    8  A    between atoms: C_9  and  C_10 
REMARK    9  A    between atoms: C_10  and  C_11 
REMARK   10  A    between atoms: C_11  and  C_12 
REMARK   11  A    between atoms: C_12  and  O_13 
ROOT
HETATM    1  C   LIG     1       0.836  -0.985  -0.238  1.00  0.00     0.000 C 
ENDROOT
BRANCH   1   2
HETATM    2  C   LIG     1      -0.559  -1.423   0.224  1.00  0.00     0.000 C 
BRANCH   2   3
HETATM    3  C   LIG     1      -1.569  -1.347  -0.930  1.00  0.00     0.000 C 
BRANCH   3   4
HETATM    4  C   LIG     1      -2.947  -1.922  -0.557  1.00  0.00     0.000 C 
BRANCH   4   5
HETATM    5  C   LIG     1      -3.663  -1.204   0.606  1.00  0.00     0.000 C 
BRANCH   5   6
HETATM    6  C   LIG     1      -3.868   0.308   0.411  1.00  0.00     0.000 C 
BRANCH   6   7
HETATM    7  C   LIG     1      -4.737   0.640  -0.810  1.00  0.00     0.000 C 
HETATM    8  C   LIG     1      -5.044   2.133  -0.877  1.00  0.00     0.000 C 
ENDBRANCH   6   7
ENDBRANCH   5   6
ENDBRANCH   4   5
ENDBRANCH   3   4
ENDBRANCH   2   3
ENDBRANCH   1   2
BRANCH   1   9
HETATM    9  C   LIG     1       1.841  -1.035   0.923  1.00  0.00     0.001 C 
BRANCH   9  10
HETATM   10  C   LIG     1       3.278  -0.727   0.475  1.00  0.00     0.010 C 
BRANCH  10  11
HETATM   11  C   LIG     1       3.476   0.749   0.099  1.00  0.00     0.096 C 
BRANCH  11  12
HETATM   12  C   LIG     1       4.918   1.036  -0.181  1.00  0.00     0.272 C 
HETATM   13  O   LIG     1       5.491   0.480  -1.158  1.00  0.00    -0.264 OA
BRANCH  12  14
HETATM   14  O   LIG     1       5.615   1.928   0.640  1.00  0.00    -0.299 OA
HETATM   15  C   LIG     1       6.986   2.247   0.433  1.00  0.00     0.184 C 
ENDBRANCH  12  14
ENDBRANCH  11  12
ENDBRANCH  10  11
ENDBRANCH   9  10
ENDBRANCH   1   9
TORSDOF 11
