REMARK  7 active torsions:
REMARK  status: ('A' for Active; 'I' for Inactive)
REMARK    1  A    between atoms: C_2  and  C_3 
REMARK    2  A    between atoms: C_3  and  C_4 
REMARK    3  A    between atoms: C_4  and  C_5 
REMARK    4  A    between atoms: C_5  and  C_6 
REMARK    5  A    between atoms: C_6  and  C_7 
REMARK    6  A    between atoms: C_7  and  C_8 
REMARK    7  A    between atoms: C_8  and  O_9 
ROOT
HETATM    1  C   LIG     1      -0.896  -0.686   0.049  1.00  0.00     0.010 C 
ENDROOT
BRANCH   1   2
HETATM    2  C   LIG     1       0.392  -1.203   0.708  1.00  0.00     0.001 C 
BRANCH   2   3
HETATM    3  C   LIG     1       1.662  -0.716  -0.009  1.00  0.00     0.000 C 
BRANCH   3   4
HETATM    4  C   LIG     1       1.953   0.772   0.250  1.00  0.00     0.000 C 
BRANCH   4   5
HETATM    5  C   LIG     1       3.228   1.254  -0.458  1.00  0.00     0.000 C 
HETATM    6  C   LIG     1       4.506   0.726   0.195  1.00  0.00     0.000 C 
ENDBRANCH   4   5
ENDBRANCH   3   4
ENDBRANCH   2   3
ENDBRANCH   1   2
BRANCH   1   7
HETATM    7  C   LIG     1      -2.134  -1.300   0.711  1.00  0.00     0.096 C 
BRANCH   7   8
HETATM    8  C   LIG     1      -3.386  -0.795   0.064  1.00  0.00     0.272 C 
HETATM    9  O   LIG     1      -4.155  -1.600  -0.529  1.00  0.00    -0.264 OA
BRANCH   8  10
HETATM   10  O   LIG     1      -3.696   0.567   0.131  1.00  0.00    -0.299 OA
HETATM   11  C   LIG     1      -4.865   1.117  -0.465  1.00  0.00     0.184 C 
ENDBRANCH   8  10
ENDBRANCH   7   8
ENDBRANCH   1   7
TORSDOF 7
