REMARK  4 active torsions:
REMARK  status: ('A' for Active; 'I' for Inactive)
REMARK    1  A    between atoms: C_2  and  C_3 
REMARK    2  A    between atoms: C_3  and  C_4 
REMARK    3  A    between atoms: C_4  and  C_5 
REMARK    4  A    between atoms: C_5  and  C_6 
ROOT
HETATM    1  C   LIG     1       0.189   0.471   0.092  1.00  0.00     0.002 C 
ENDROOT
BRANCH   1   2
HETATM    2  C   LIG     1      -1.081  -0.378   0.220  1.00  0.00     0.000 C 
BRANCH   2   3
HETATM    3  C   LIG     1      -2.337   0.500   0.180  1.00  0.00     0.000 C 
HETATM    4  C   LIG     1      -3.603  -0.342   0.307  1.00  0.00     0.000 C 
ENDBRANCH   2   3
ENDBRANCH   1   2
BRANCH   1   5
HETATM    5  C   LIG     1       1.445  -0.407   0.133  1.00  0.00     0.041 C 
BRANCH   5   6
HETATM    6  C   LIG     1       2.714   0.440   0.003  1.00  0.00     0.338 C 
HETATM    7  N   LIG     1       3.896  -0.414   0.067  1.00  0.00     0.618 N 
ENDBRANCH   5   6
ENDBRANCH   1   5
TORSDOF 4
