REMARK  6 active torsions:
REMARK  status: ('A' for Active; 'I' for Inactive)
REMARK    1  A    between atoms: C_2  and  C_3 
REMARK    2  A    between atoms: C_3  and  C_4 
REMARK    3  A    between atoms: C_4  and  C_5 
REMARK    4  A    between atoms: C_5  and  C_6 
REMARK    5  A    between atoms: C_6  and  C_7 
REMARK    6  A    between atoms: C_7  and  C_8 
ROOT
HETATM    1  C   LIG     1       0.145   0.599   1.704  1.00  0.00     0.000 C 
ENDROOT
BRANCH   1   2
HETATM    2  C   LIG     1      -1.184   0.161   1.064  1.00  0.00     0.000 C 
BRANCH   2   3
HETATM    3  C   LIG     1      -1.299   0.570  -0.413  1.00  0.00     0.000 C 
BRANCH   3   4
HETATM    4  C   LIG     1      -2.719   0.380  -0.968  1.00  0.00     0.000 C 
HETATM    5  C   LIG     1      -3.111  -1.092  -1.093  1.00  0.00     0.000 C 
ENDBRANCH   3   4
ENDBRANCH   2   3
ENDBRANCH   1   2
BRANCH   1   6
HETATM    6  C   LIG     1       1.378  -0.125   1.123  1.00  0.00     0.003 C 
BRANCH   6   7
HETATM    7  C   LIG     1       2.150   0.752   0.123  1.00  0.00     0.036 C 
BRANCH   7   8
HETATM    8  C   LIG     1       3.352   0.014  -0.468  1.00  0.00     0.182 C 
HETATM    9  O   LIG     1       2.917  -1.057  -1.260  1.00  0.00    -0.221 OA
ENDBRANCH   7   8
ENDBRANCH   6   7
ENDBRANCH   1   6
TORSDOF 6
