REMARK  5 active torsions:
REMARK  status: ('A' for Active; 'I' for Inactive)
REMARK    1  A    between atoms: C_2  and  C_3 
REMARK    2  A    between atoms: C_3  and  C_4 
REMARK    3  A    between atoms: C_4  and  O_5 
REMARK    4  A    between atoms: O_5  and  C_6 
REMARK    5  A    between atoms: C_6  and  C_7 
ROOT
HETATM    1  C   LIG     1       0.010  -0.712  -0.504  1.00  0.00     0.142 C 
ENDROOT
BRANCH   1   2
HETATM    2  C   LIG     1      -1.149  -0.952   0.472  1.00  0.00     0.032 C 
BRANCH   2   3
HETATM    3  C   LIG     1      -2.514  -0.573  -0.123  1.00  0.00     0.003 C 
HETATM    4  C   LIG     1      -2.697   0.938  -0.265  1.00  0.00     0.000 C 
ENDBRANCH   2   3
ENDBRANCH   1   2
BRANCH   1   5
HETATM    5  O   LIG     1       1.212  -1.242   0.025  1.00  0.00    -0.351 OA
BRANCH   5   6
HETATM    6  C   LIG     1       1.930  -0.266   0.757  1.00  0.00     0.178 C 
BRANCH   6   7
HETATM    7  C   LIG     1       2.957   0.424  -0.143  1.00  0.00     0.214 C 
HETATM    8  O   LIG     1       3.739   1.314   0.605  1.00  0.00    -0.218 OA
ENDBRANCH   6   7
ENDBRANCH   5   6
ENDBRANCH   1   5
TORSDOF 5
