REMARK  6 active torsions:
REMARK  status: ('A' for Active; 'I' for Inactive)
REMARK    1  A    between atoms: C_2  and  C_3 
REMARK    2  A    between atoms: C_3  and  C_4 
REMARK    3  A    between atoms: C_4  and  N_5 
REMARK    4  A    between atoms: N_5  and  C_6 
REMARK    5  A    between atoms: C_6  and  C_7 
REMARK    6  A    between atoms: C_7  and  C_8 
ROOT
HETATM    1  N   LIG     1      -0.206  -0.610  -0.645  1.00  0.00     0.339 N 
ENDROOT
BRANCH   1   2
HETATM    2  C   LIG     1       1.041  -0.454   0.120  1.00  0.00     0.290 C 
BRANCH   2   3
HETATM    3  C   LIG     1       2.151   0.091  -0.790  1.00  0.00     0.038 C 
BRANCH   3   4
HETATM    4  C   LIG     1       3.449   0.392  -0.026  1.00  0.00     0.002 C 
HETATM    5  C   LIG     1       4.167  -0.873   0.443  1.00  0.00     0.000 C 
ENDBRANCH   3   4
ENDBRANCH   2   3
ENDBRANCH   1   2
BRANCH   1   6
HETATM    6  C   LIG     1      -1.064   0.588  -0.583  1.00  0.00     0.290 C 
BRANCH   6   7
HETATM    7  C   LIG     1      -1.967   0.612   0.670  1.00  0.00     0.038 C 
BRANCH   7   8
HETATM    8  C   LIG     1      -3.224  -0.267   0.542  1.00  0.00     0.002 C 
HETATM    9  C   LIG     1      -4.307   0.377  -0.324  1.00  0.00     0.000 C 
ENDBRANCH   7   8
ENDBRANCH   6   7
ENDBRANCH   1   6
TORSDOF 6
