REMARK  6 active torsions:
REMARK  status: ('A' for Active; 'I' for Inactive)
REMARK    1  A    between atoms: C_2  and  C_3 
REMARK    2  A    between atoms: C_3  and  C_4 
REMARK    3  A    between atoms: C_4  and  C_5 
REMARK    4  A    between atoms: C_5  and  C_6 
REMARK    5  A    between atoms: C_6  and  C_7 
REMARK    6  A    between atoms: C_7  and  C_8 
ROOT
HETATM    1  C   LIG     1      -0.739  -0.548   1.262  1.00  0.00     0.000 C 
ENDROOT
BRANCH   1   2
HETATM    2  C   LIG     1       0.321   0.470   0.802  1.00  0.00     0.000 C 
BRANCH   2   3
HETATM    3  C   LIG     1       1.448  -0.169  -0.023  1.00  0.00     0.000 C 
BRANCH   3   4
HETATM    4  C   LIG     1       2.570   0.841  -0.294  1.00  0.00     0.000 C 
HETATM    5  C   LIG     1       3.684   0.216  -1.128  1.00  0.00     0.000 C 
ENDBRANCH   3   4
ENDBRANCH   2   3
ENDBRANCH   1   2
BRANCH   1   6
HETATM    6  C   LIG     1      -1.511  -1.244   0.126  1.00  0.00     0.001 C 
BRANCH   6   7
HETATM    7  C   LIG     1      -2.342  -0.307  -0.771  1.00  0.00     0.012 C 
BRANCH   7   8
HETATM    8  C   LIG     1      -3.529   0.346  -0.048  1.00  0.00     0.068 C 
HETATM    9 BR   LIG     1      -3.062   2.071   0.712  1.00  0.00    -0.081 Br
ENDBRANCH   7   8
ENDBRANCH   6   7
ENDBRANCH   1   6
TORSDOF 6
