REMARK  5 active torsions:
REMARK  status: ('A' for Active; 'I' for Inactive)
REMARK    1  A    between atoms: C_2  and  C_3 
REMARK    2  A    between atoms: C_3  and  C_4 
REMARK    3  A    between atoms: C_4  and  C_5 
REMARK    4  A    between atoms: C_5  and  C_6 
REMARK    5  A    between atoms: C_6  and  C_7 
ROOT
HETATM    1  C   LIG     1      -0.208  -1.165   0.225  1.00  0.00     0.000 C 
ENDROOT
BRANCH   1   2
HETATM    2  C   LIG     1      -1.282  -0.071   0.140  1.00  0.00     0.000 C 
BRANCH   2   3
HETATM    3  C   LIG     1      -2.658  -0.676  -0.160  1.00  0.00     0.000 C 
HETATM    4  C   LIG     1      -3.729   0.406  -0.257  1.00  0.00     0.000 C 
ENDBRANCH   2   3
ENDBRANCH   1   2
BRANCH   1   5
HETATM    5  C   LIG     1       1.162  -0.617   0.656  1.00  0.00     0.004 C 
BRANCH   5   6
HETATM    6  C   LIG     1       1.834   0.225  -0.438  1.00  0.00     0.026 C 
BRANCH   6   7
HETATM    7  C   LIG     1       3.222   0.637  -0.029  1.00  0.00    -0.026 C 
HETATM    8  C   LIG     1       3.986   1.372  -0.842  1.00  0.00    -0.004 C 
ENDBRANCH   6   7
ENDBRANCH   5   6
ENDBRANCH   1   5
TORSDOF 5
