REMARK  7 active torsions:
REMARK  status: ('A' for Active; 'I' for Inactive)
REMARK       I    between atoms: C_2  and  N_7 
REMARK    1  A    between atoms: C_2  and  S_3 
REMARK    2  A    between atoms: S_3  and  C_4 
REMARK    3  A    between atoms: C_4  and  C_5 
REMARK    4  A    between atoms: N_7  and  C_12 
REMARK    5  A    between atoms: N_7  and  C_8 
REMARK    6  A    between atoms: C_8  and  C_9 
REMARK    7  A    between atoms: C_9  and  C_10 
ROOT
HETATM    1  O   LIG     1       1.299   1.800  -1.201  1.00  0.00    -0.260 OA
HETATM    2  C   LIG     1       0.629   0.865  -0.687  1.00  0.00     0.284 C 
HETATM    3  N   LIG     1      -0.407   1.159   0.278  1.00  0.00    -0.312 N 
ENDROOT
BRANCH   3   4
HETATM    4  C   LIG     1      -0.627   2.550   0.708  1.00  0.00     0.105 C 
HETATM    5  C   LIG     1      -1.399   3.328  -0.354  1.00  0.00     0.026 C 
ENDBRANCH   3   4
BRANCH   3   6
HETATM    6  C   LIG     1      -1.193   0.077   0.894  1.00  0.00     0.105 C 
BRANCH   6   7
HETATM    7  C   LIG     1      -2.300  -0.393  -0.060  1.00  0.00     0.024 C 
BRANCH   7   8
HETATM    8  C   LIG     1      -3.130  -1.546   0.523  1.00  0.00     0.002 C 
HETATM    9  C   LIG     1      -2.371  -2.874   0.523  1.00  0.00     0.000 C 
ENDBRANCH   7   8
ENDBRANCH   6   7
ENDBRANCH   3   6
BRANCH   2  10
HETATM   10  S   LIG     1       1.013  -0.824  -1.183  1.00  0.00    -0.055 SA
BRANCH  10  11
HETATM   11  C   LIG     1       2.228  -1.123   0.154  1.00  0.00     0.067 C 
BRANCH  11  12
HETATM   12  C   LIG     1       3.648  -1.259  -0.404  1.00  0.00     0.012 C 
HETATM   13  C   LIG     1       4.198   0.068  -0.923  1.00  0.00     0.001 C 
ENDBRANCH  11  12
ENDBRANCH  10  11
ENDBRANCH   2  10
TORSDOF 7
