REMARK  7 active torsions:
REMARK  status: ('A' for Active; 'I' for Inactive)
REMARK    1  A    between atoms: C_2  and  C_3 
REMARK    2  A    between atoms: C_3  and  C_4 
REMARK    3  A    between atoms: C_4  and  C_5 
REMARK    4  A    between atoms: C_5  and  C_6 
REMARK    5  A    between atoms: C_6  and  C_7 
REMARK    6  A    between atoms: C_7  and  C_8 
REMARK    7  A    between atoms: C_8  and  C_9 
ROOT
HETATM    1  C   LIG     1       1.204  -1.122  -0.386  1.00  0.00     0.001 C 
ENDROOT
BRANCH   1   2
HETATM    2  C   LIG     1       0.154  -0.002  -0.451  1.00  0.00     0.000 C 
BRANCH   2   3
HETATM    3  C   LIG     1      -1.263  -0.570  -0.305  1.00  0.00     0.000 C 
BRANCH   3   4
HETATM    4  C   LIG     1      -2.312   0.547  -0.358  1.00  0.00     0.000 C 
BRANCH   4   5
HETATM    5  C   LIG     1      -3.728  -0.021  -0.213  1.00  0.00     0.000 C 
HETATM    6  C   LIG     1      -4.775   1.087  -0.265  1.00  0.00     0.000 C 
ENDBRANCH   4   5
ENDBRANCH   3   4
ENDBRANCH   2   3
ENDBRANCH   1   2
BRANCH   1   7
HETATM    7  C   LIG     1       2.629  -0.616  -0.662  1.00  0.00     0.011 C 
BRANCH   7   8
HETATM    8  C   LIG     1       3.190   0.229   0.491  1.00  0.00     0.098 C 
BRANCH   8   9
HETATM    9  C   LIG     1       4.620   0.602   0.231  1.00  0.00     0.185 C 
HETATM   10  O   LIG     1       5.619  -0.368   0.230  1.00  0.00    -0.647 OA
HETATM   11  O   LIG     1       4.928   1.805   0.024  1.00  0.00    -0.647 OA
ENDBRANCH   8   9
ENDBRANCH   7   8
ENDBRANCH   1   7
TORSDOF 7
