REMARK  12 active torsions:
REMARK  status: ('A' for Active; 'I' for Inactive)
REMARK    1  A    between atoms: C_2  and  C_3 
REMARK    2  A    between atoms: C_3  and  C_4 
REMARK    3  A    between atoms: C_4  and  C_5 
REMARK    4  A    between atoms: C_5  and  C_6 
REMARK    5  A    between atoms: C_6  and  C_7 
REMARK    6  A    between atoms: C_7  and  C_8 
REMARK    7  A    between atoms: C_8  and  C_9 
REMARK    8  A    between atoms: C_9  and  C_10 
REMARK    9  A    between atoms: C_10  and  C_11 
REMARK   10  A    between atoms: C_11  and  C_12 
REMARK   11  A    between atoms: C_12  and  C_13 
REMARK   12  A    between atoms: C_13  and  C_14 
ROOT
HETATM    1  C   LIG     1      -0.981   0.184  -0.367  1.00  0.00     0.000 C 
ENDROOT
BRANCH   1   2
HETATM    2  C   LIG     1       0.157   1.146  -0.746  1.00  0.00     0.000 C 
BRANCH   2   3
HETATM    3  C   LIG     1       1.538   0.474  -0.707  1.00  0.00     0.000 C 
BRANCH   3   4
HETATM    4  C   LIG     1       2.653   1.501  -0.959  1.00  0.00     0.000 C 
BRANCH   4   5
HETATM    5  C   LIG     1       4.042   0.853  -1.077  1.00  0.00     0.000 C 
BRANCH   5   6
HETATM    6  C   LIG     1       4.560   0.315   0.265  1.00  0.00     0.000 C 
BRANCH   6   7
HETATM    7  C   LIG     1       5.999  -0.196   0.132  1.00  0.00     0.000 C 
HETATM    8  C   LIG     1       6.517  -0.740   1.460  1.00  0.00     0.000 C 
ENDBRANCH   6   7
ENDBRANCH   5   6
ENDBRANCH   4   5
ENDBRANCH   3   4
ENDBRANCH   2   3
ENDBRANCH   1   2
BRANCH   1   9
HETATM    9  C   LIG     1      -1.315  -0.807  -1.494  1.00  0.00     0.000 C 
BRANCH   9  10
HETATM   10  C   LIG     1      -2.392  -1.829  -1.090  1.00  0.00     0.000 C 
BRANCH  10  11
HETATM   11  C   LIG     1      -3.781  -1.201  -0.846  1.00  0.00     0.000 C 
BRANCH  11  12
HETATM   12  C   LIG     1      -4.101  -1.072   0.654  1.00  0.00     0.003 C 
BRANCH  12  13
HETATM   13  C   LIG     1      -5.469  -0.421   0.911  1.00  0.00     0.036 C 
BRANCH  13  14
HETATM   14  C   LIG     1      -5.451   1.096   0.688  1.00  0.00     0.182 C 
HETATM   15  O   LIG     1      -6.696   1.647   1.019  1.00  0.00    -0.221 OA
ENDBRANCH  13  14
ENDBRANCH  12  13
ENDBRANCH  11  12
ENDBRANCH  10  11
ENDBRANCH   9  10
ENDBRANCH   1   9
TORSDOF 12
