REMARK  8 active torsions:
REMARK  status: ('A' for Active; 'I' for Inactive)
REMARK    1  A    between atoms: C_2  and  C_3 
REMARK    2  A    between atoms: C_3  and  C_4 
REMARK    3  A    between atoms: C_4  and  C_5 
REMARK    4  A    between atoms: C_5  and  C_6 
REMARK    5  A    between atoms: C_6  and  C_7 
REMARK    6  A    between atoms: C_7  and  C_8 
REMARK    7  A    between atoms: C_8  and  C_9 
REMARK    8  A    between atoms: C_9  and  C_10 
ROOT
HETATM    1  C   LIG     1       0.335   0.081   0.899  1.00  0.00     0.000 C 
ENDROOT
BRANCH   1   2
HETATM    2  C   LIG     1      -0.799  -0.770   0.299  1.00  0.00     0.000 C 
BRANCH   2   3
HETATM    3  C   LIG     1      -1.989  -0.909   1.266  1.00  0.00     0.000 C 
BRANCH   3   4
HETATM    4  C   LIG     1      -2.909   0.333   1.282  1.00  0.00     0.000 C 
BRANCH   4   5
HETATM    5  C   LIG     1      -4.199   0.149   0.466  1.00  0.00     0.000 C 
HETATM    6  C   LIG     1      -3.943   0.042  -1.036  1.00  0.00     0.000 C 
ENDBRANCH   4   5
ENDBRANCH   3   4
ENDBRANCH   2   3
ENDBRANCH   1   2
BRANCH   1   7
HETATM    7  C   LIG     1       1.453   0.379  -0.114  1.00  0.00     0.000 C 
BRANCH   7   8
HETATM    8  C   LIG     1       2.316  -0.857  -0.422  1.00  0.00     0.003 C 
BRANCH   8   9
HETATM    9  C   LIG     1       3.421  -0.566  -1.453  1.00  0.00     0.036 C 
BRANCH   9  10
HETATM   10  C   LIG     1       4.527   0.363  -0.938  1.00  0.00     0.182 C 
HETATM   11  O   LIG     1       5.167  -0.192   0.180  1.00  0.00    -0.221 OA
ENDBRANCH   9  10
ENDBRANCH   8   9
ENDBRANCH   7   8
ENDBRANCH   1   7
TORSDOF 8
