REMARK  10 active torsions:
REMARK  status: ('A' for Active; 'I' for Inactive)
REMARK    1  A    between atoms: C_2  and  C_3 
REMARK    2  A    between atoms: C_3  and  C_4 
REMARK    3  A    between atoms: C_4  and  C_5 
REMARK    4  A    between atoms: C_5  and  C_6 
REMARK    5  A    between atoms: C_6  and  C_7 
REMARK    6  A    between atoms: C_7  and  C_8 
REMARK    7  A    between atoms: C_8  and  C_9 
REMARK    8  A    between atoms: C_9  and  C_10 
REMARK    9  A    between atoms: C_10  and  C_11 
REMARK   10  A    between atoms: C_11  and  C_12 
ROOT
HETATM    1  C   LIG     1      -0.678  -0.380  -1.159  1.00  0.00     0.000 C 
ENDROOT
BRANCH   1   2
HETATM    2  C   LIG     1       0.576  -0.784  -0.366  1.00  0.00     0.000 C 
BRANCH   2   3
HETATM    3  C   LIG     1       1.603   0.353  -0.260  1.00  0.00     0.000 C 
BRANCH   3   4
HETATM    4  C   LIG     1       2.891  -0.131   0.419  1.00  0.00     0.000 C 
BRANCH   4   5
HETATM    5  C   LIG     1       3.918   1.006   0.525  1.00  0.00     0.000 C 
BRANCH   5   6
HETATM    6  C   LIG     1       5.178   0.592   1.302  1.00  0.00     0.000 C 
HETATM    7  C   LIG     1       6.054  -0.391   0.527  1.00  0.00     0.000 C 
ENDBRANCH   5   6
ENDBRANCH   4   5
ENDBRANCH   3   4
ENDBRANCH   2   3
ENDBRANCH   1   2
BRANCH   1   8
HETATM    8  C   LIG     1      -1.608   0.547  -0.359  1.00  0.00     0.000 C 
BRANCH   8   9
HETATM    9  C   LIG     1      -2.832   1.010  -1.171  1.00  0.00     0.000 C 
BRANCH   9  10
HETATM   10  C   LIG     1      -3.777  -0.116  -1.637  1.00  0.00     0.003 C 
BRANCH  10  11
HETATM   11  C   LIG     1      -4.326  -1.013  -0.513  1.00  0.00     0.036 C 
BRANCH  11  12
HETATM   12  C   LIG     1      -5.161  -0.242   0.512  1.00  0.00     0.182 C 
HETATM   13  O   LIG     1      -5.757  -1.146   1.400  1.00  0.00    -0.221 OA
ENDBRANCH  11  12
ENDBRANCH  10  11
ENDBRANCH   9  10
ENDBRANCH   8   9
ENDBRANCH   1   8
TORSDOF 10
