REMARK  9 active torsions:
REMARK  status: ('A' for Active; 'I' for Inactive)
REMARK    1  A    between atoms: C_2  and  C_4 
REMARK    2  A    between atoms: C_4  and  C_5 
REMARK    3  A    between atoms: C_5  and  C_6 
REMARK    4  A    between atoms: C_6  and  C_7 
REMARK    5  A    between atoms: C_7  and  C_8 
REMARK    6  A    between atoms: C_8  and  C_9 
REMARK    7  A    between atoms: C_9  and  C_10 
REMARK    8  A    between atoms: C_10  and  C_11 
REMARK    9  A    between atoms: C_11  and  C_12 
ROOT
HETATM    1  C   LIG     1       1.312  -0.291  -0.959  1.00  0.00     0.000 C 
ENDROOT
BRANCH   1   2
HETATM    2  C   LIG     1       1.784   0.531   0.253  1.00  0.00     0.001 C 
BRANCH   2   3
HETATM    3  C   LIG     1       3.146   0.062   0.791  1.00  0.00     0.011 C 
BRANCH   3   4
HETATM    4  C   LIG     1       4.313   0.466  -0.119  1.00  0.00     0.098 C 
BRANCH   4   5
HETATM    5  C   LIG     1       5.618   0.095   0.513  1.00  0.00     0.185 C 
HETATM    6  O   LIG     1       6.223   0.923   1.245  1.00  0.00    -0.647 OA
HETATM    7  O   LIG     1       6.140  -1.181   0.326  1.00  0.00    -0.647 OA
ENDBRANCH   4   5
ENDBRANCH   3   4
ENDBRANCH   2   3
ENDBRANCH   1   2
BRANCH   1   8
HETATM    8  C   LIG     1      -0.046   0.183  -1.502  1.00  0.00     0.000 C 
BRANCH   8   9
HETATM    9  C   LIG     1      -1.221  -0.219  -0.597  1.00  0.00     0.000 C 
BRANCH   9  10
HETATM   10  C   LIG     1      -2.562   0.169  -1.236  1.00  0.00     0.000 C 
BRANCH  10  11
HETATM   11  C   LIG     1      -3.771  -0.319  -0.421  1.00  0.00     0.000 C 
BRANCH  11  12
HETATM   12  C   LIG     1      -3.955   0.462   0.888  1.00  0.00     0.000 C 
HETATM   13  C   LIG     1      -5.239   0.044   1.600  1.00  0.00     0.000 C 
ENDBRANCH  11  12
ENDBRANCH  10  11
ENDBRANCH   9  10
ENDBRANCH   8   9
ENDBRANCH   1   8
TORSDOF 9
