REMARK  0 active torsions:
REMARK  status: ('A' for Active; 'I' for Inactive)
ROOT
HETATM    1 CL   LIG     1       3.769  -1.169  -0.866  1.00  0.00    -0.060 Cl
HETATM    2  C   LIG     1       2.216  -0.503  -0.405  1.00  0.00     0.159 A 
HETATM    3  N   LIG     1       1.073  -1.171  -0.718  1.00  0.00    -0.212 NA
HETATM    4  C   LIG     1      -0.143  -0.673  -0.371  1.00  0.00     0.184 A 
HETATM    5  N   LIG     1      -1.281  -1.344  -0.684  1.00  0.00    -0.203 NA
HETATM    6  C   LIG     1      -2.497  -0.844  -0.336  1.00  0.00     0.201 A 
HETATM    7  N   LIG     1      -2.587   0.337   0.333  1.00  0.00    -0.221 NA
HETATM    8  C   LIG     1      -1.473   1.042   0.667  1.00  0.00     0.123 A 
HETATM    9  C   LIG     1      -0.217   0.547   0.320  1.00  0.00     0.136 A 
HETATM   10  N   LIG     1       0.925   1.215   0.632  1.00  0.00    -0.237 NA
HETATM   11  C   LIG     1       2.140   0.714   0.283  1.00  0.00     0.130 A 
ENDROOT
TORSDOF 0
