REMARK  0 active torsions:
REMARK  status: ('A' for Active; 'I' for Inactive)
ROOT
HETATM    1  O   LIG     1       3.939  -0.777   0.114  1.00  0.00    -0.190 OA
HETATM    2  C   LIG     1       2.652  -0.257   0.001  1.00  0.00     0.131 A 
HETATM    3  C   LIG     1       2.469   1.130  -0.023  1.00  0.00     0.027 A 
HETATM    4  C   LIG     1       1.184   1.669  -0.142  1.00  0.00    -0.003 A 
HETATM    5  C   LIG     1       1.542  -1.109  -0.092  1.00  0.00     0.023 A 
HETATM    6  C   LIG     1       0.251  -0.572  -0.198  1.00  0.00    -0.024 A 
HETATM    7  C   LIG     1       0.070   0.821  -0.220  1.00  0.00    -0.026 A 
HETATM    8  C   LIG     1      -1.319   1.367  -0.412  1.00  0.00     0.026 C 
HETATM    9  C   LIG     1      -2.362   0.595   0.423  1.00  0.00     0.005 C 
HETATM   10  C   LIG     1      -2.085  -0.924   0.581  1.00  0.00     0.005 C 
HETATM   11  C   LIG     1      -0.960  -1.454  -0.319  1.00  0.00     0.026 C 
ENDROOT
TORSDOF 0
