REMARK  1 active torsions:
REMARK  status: ('A' for Active; 'I' for Inactive)
REMARK    1  A    between atoms: C_2  and  C_3 
ROOT
HETATM    1  C   LIG     1      -0.461   0.688   0.734  1.00  0.00    -0.022 A 
HETATM    2  C   LIG     1       0.008  -0.010  -0.414  1.00  0.00    -0.004 A 
HETATM    3  C   LIG     1      -0.748  -1.022  -1.046  1.00  0.00    -0.000 A 
HETATM    4  C   LIG     1      -0.253  -1.685  -2.171  1.00  0.00    -0.000 A 
HETATM    5  C   LIG     1       0.998  -1.354  -2.690  1.00  0.00     0.000 A 
HETATM    6  C   LIG     1       1.763  -0.355  -2.088  1.00  0.00    -0.000 A 
HETATM    7  C   LIG     1       1.281   0.322  -0.957  1.00  0.00    -0.000 A 
HETATM    8  C   LIG     1       2.056   1.328  -0.364  1.00  0.00    -0.000 A 
HETATM    9  C   LIG     1       1.587   2.008   0.756  1.00  0.00    -0.000 A 
HETATM   10  C   LIG     1       0.343   1.694   1.300  1.00  0.00    -0.004 A 
ENDROOT
BRANCH   1  11
HETATM   11  C   LIG     1      -1.796   0.392   1.386  1.00  0.00     0.026 C 
HETATM   12  C   LIG     1      -1.722  -0.863   2.253  1.00  0.00     0.004 C 
ENDBRANCH   1  11
TORSDOF 1
