REMARK  2 active torsions:
REMARK  status: ('A' for Active; 'I' for Inactive)
REMARK       I    between atoms: C_2  and  N_3 
REMARK    1  A    between atoms: C_2  and  O_5 
REMARK    2  A    between atoms: O_5  and  C_6 
ROOT
HETATM    1  C   LIG     1      -0.098  -0.221  -0.098  1.00  0.00     0.104 A 
HETATM    2  C   LIG     1      -1.055   0.775  -0.326  1.00  0.00     0.021 A 
HETATM    3  C   LIG     1      -2.421   0.457  -0.383  1.00  0.00    -0.020 A 
HETATM    4  C   LIG     1      -3.436   1.527  -0.656  1.00  0.00     0.031 C 
HETATM    5  C   LIG     1      -2.823  -0.881  -0.253  1.00  0.00    -0.004 A 
HETATM    6  C   LIG     1      -1.872  -1.883  -0.045  1.00  0.00     0.002 A 
HETATM    7  C   LIG     1      -0.515  -1.559   0.031  1.00  0.00     0.025 A 
ENDROOT
BRANCH   1   8
HETATM    8  O   LIG     1       1.254   0.151  -0.049  1.00  0.00    -0.258 OA
BRANCH   8   9
HETATM    9  C   LIG     1       2.256  -0.516   0.671  1.00  0.00     0.388 C 
HETATM   10  O   LIG     1       1.960  -1.333   1.584  1.00  0.00    -0.236 OA
HETATM   11  N   LIG     1       3.631  -0.227   0.409  1.00  0.00    -0.210 NA
HETATM   12  C   LIG     1       4.026   0.725  -0.621  1.00  0.00     0.158 C 
ENDBRANCH   8   9
ENDBRANCH   1   8
TORSDOF 2
