REMARK  4 active torsions:
REMARK  status: ('A' for Active; 'I' for Inactive)
REMARK       I    between atoms: C_2  and  N_6 
REMARK    1  A    between atoms: C_2  and  S_3 
REMARK    2  A    between atoms: S_3  and  C_4 
REMARK    3  A    between atoms: N_6  and  C_13 
REMARK    4  A    between atoms: N_6  and  C_7 
ROOT
HETATM    1  O   LIG     1       1.558   0.031   2.383  1.00  0.00    -0.260 OA
HETATM    2  C   LIG     1       1.537  -0.649   1.323  1.00  0.00     0.284 C 
HETATM    3  N   LIG     1       0.277  -0.994   0.704  1.00  0.00    -0.314 N 
ENDROOT
BRANCH   3   4
HETATM    4  C   LIG     1       0.204  -2.178  -0.175  1.00  0.00     0.105 C 
HETATM    5  C   LIG     1       0.333  -1.792  -1.646  1.00  0.00     0.026 C 
ENDBRANCH   3   4
BRANCH   3   6
HETATM    6  C   LIG     1      -0.872  -0.079   0.914  1.00  0.00     0.085 C 
HETATM    7  C   LIG     1      -2.248  -0.723   0.633  1.00  0.00     0.022 C 
HETATM    8  C   LIG     1      -3.406   0.231   0.995  1.00  0.00     0.002 C 
HETATM    9  C   LIG     1      -3.060   1.722   0.807  1.00  0.00     0.000 C 
HETATM   10  C   LIG     1      -1.996   1.926  -0.275  1.00  0.00     0.002 C 
HETATM   11  C   LIG     1      -0.676   1.220   0.090  1.00  0.00     0.022 C 
ENDBRANCH   3   6
BRANCH   2  12
HETATM   12  S   LIG     1       3.108  -1.150   0.606  1.00  0.00    -0.055 SA
BRANCH  12  13
HETATM   13  C   LIG     1       3.338   0.429  -0.278  1.00  0.00     0.067 C 
HETATM   14  C   LIG     1       4.574   0.353  -1.161  1.00  0.00     0.013 C 
ENDBRANCH  12  13
ENDBRANCH   2  12
TORSDOF 4
