REMARK  4 active torsions:
REMARK  status: ('A' for Active; 'I' for Inactive)
REMARK       I    between atoms: C_2  and  N_3 
REMARK    1  A    between atoms: C_2  and  O_5 
REMARK    2  A    between atoms: O_5  and  C_6 
REMARK    3  A    between atoms: C_11  and  O_12 
REMARK    4  A    between atoms: O_12  and  C_13 
ROOT
HETATM    1  C   LIG     1       0.383  -1.122   0.222  1.00  0.00     0.127 A 
HETATM    2  C   LIG     1       1.254  -2.226   0.126  1.00  0.00     0.027 A 
HETATM    3  C   LIG     1       0.877  -3.476   0.617  1.00  0.00     0.002 A 
HETATM    4  C   LIG     1      -0.375  -3.646   1.203  1.00  0.00     0.002 A 
HETATM    5  C   LIG     1      -1.259  -2.570   1.284  1.00  0.00     0.026 A 
HETATM    6  C   LIG     1      -0.908  -1.307   0.785  1.00  0.00     0.117 A 
ENDROOT
BRANCH   1   7
HETATM    7  O   LIG     1       0.776   0.135  -0.260  1.00  0.00    -0.256 OA
BRANCH   7   8
HETATM    8  C   LIG     1       2.081   0.642  -0.244  1.00  0.00     0.388 C 
HETATM    9  O   LIG     1       2.972   0.112   0.475  1.00  0.00    -0.236 OA
HETATM   10  N   LIG     1       2.380   1.810  -1.013  1.00  0.00    -0.210 NA
HETATM   11  C   LIG     1       3.711   2.404  -1.028  1.00  0.00     0.158 C 
ENDBRANCH   7   8
ENDBRANCH   1   7
BRANCH   6  12
HETATM   12  O   LIG     1      -1.880  -0.294   0.905  1.00  0.00    -0.331 OA
BRANCH  12  13
HETATM   13  C   LIG     1      -1.913   0.975   0.248  1.00  0.00     0.122 C 
HETATM   14  C   LIG     1      -2.144   0.795  -1.257  1.00  0.00     0.033 C 
HETATM   15  C   LIG     1      -3.046   1.802   0.854  1.00  0.00     0.033 C 
ENDBRANCH  12  13
ENDBRANCH   6  12
TORSDOF 4
