REMARK  3 active torsions:
REMARK  status: ('A' for Active; 'I' for Inactive)
REMARK    1  A    between atoms: C_6  and  C_13 
REMARK    2  A    between atoms: C_6  and  C_7 
REMARK    3  A    between atoms: C_13  and  C_14 
ROOT
HETATM    1  O   LIG     1      -3.663   2.537  -1.457  1.00  0.00    -0.242 OA
HETATM    2  C   LIG     1      -2.670   1.896  -1.024  1.00  0.00     0.373 C 
HETATM    3  N   LIG     1      -2.451   0.553  -1.442  1.00  0.00    -0.155 NA
HETATM    4  N   LIG     1      -1.752   2.520  -0.132  1.00  0.00    -0.155 NA
HETATM    5  C   LIG     1      -0.633   1.806   0.401  1.00  0.00     0.271 C 
HETATM    6  C   LIG     1      -0.454   0.309   0.184  1.00  0.00     0.169 C 
HETATM    7  C   LIG     1      -1.345  -0.206  -0.947  1.00  0.00     0.271 C 
HETATM    8  O   LIG     1      -1.131  -1.350  -1.434  1.00  0.00    -0.269 OA
HETATM    9  O   LIG     1       0.189   2.429   1.128  1.00  0.00    -0.269 OA
ENDROOT
BRANCH   6  10
HETATM   10  C   LIG     1      -0.915  -0.397   1.496  1.00  0.00     0.048 C 
BRANCH  10  11
HETATM   11  C   LIG     1      -0.760  -1.902   1.461  1.00  0.00    -0.025 C 
HETATM   12  C   LIG     1      -1.810  -2.722   1.567  1.00  0.00    -0.005 C 
ENDBRANCH  10  11
ENDBRANCH   6  10
BRANCH   6  13
HETATM   13  C   LIG     1       1.029   0.079  -0.177  1.00  0.00    -0.005 A 
HETATM   14  C   LIG     1       1.479   0.370  -1.486  1.00  0.00    -0.003 A 
HETATM   15  C   LIG     1       2.824   0.227  -1.834  1.00  0.00    -0.000 A 
HETATM   16  C   LIG     1       3.755  -0.178  -0.879  1.00  0.00    -0.000 A 
HETATM   17  C   LIG     1       3.344  -0.426   0.430  1.00  0.00    -0.000 A 
HETATM   18  C   LIG     1       1.999  -0.284   0.786  1.00  0.00    -0.003 A 
ENDBRANCH   6  13
TORSDOF 3
