REMARK  5 active torsions:
REMARK  status: ('A' for Active; 'I' for Inactive)
REMARK    1  A    between atoms: C_2  and  C_5 
REMARK    2  A    between atoms: N_18  and  C_19 
REMARK    3  A    between atoms: C_19  and  C_20 
REMARK    4  A    between atoms: C_20  and  C_21 
REMARK    5  A    between atoms: C_21  and  N_22 
ROOT
HETATM    1  C   LIG     1      -4.258   1.950   1.786  1.00  0.00     0.073 A 
HETATM    2  C   LIG     1      -3.038   1.433   1.319  1.00  0.00     0.022 A 
HETATM    3  C   LIG     1      -2.974   0.150   0.745  1.00  0.00     0.066 A 
HETATM    4  C   LIG     1      -4.151  -0.610   0.632  1.00  0.00     0.045 A 
HETATM    5  C   LIG     1      -5.371  -0.092   1.071  1.00  0.00     0.008 A 
HETATM    6  C   LIG     1      -5.427   1.177   1.651  1.00  0.00     0.004 A 
HETATM    7  S   LIG     1      -4.062  -2.280  -0.021  1.00  0.00    -0.084 SA
HETATM    8  C   LIG     1      -3.024  -1.798  -1.405  1.00  0.00     0.045 A 
HETATM    9  C   LIG     1      -1.907  -0.973  -1.174  1.00  0.00     0.066 A 
HETATM   10  C   LIG     1      -1.032  -0.689  -2.238  1.00  0.00     0.018 A 
HETATM   11  C   LIG     1      -1.281  -1.211  -3.511  1.00  0.00     0.002 A 
HETATM   12  C   LIG     1      -2.410  -2.003  -3.737  1.00  0.00     0.001 A 
HETATM   13  C   LIG     1      -3.283  -2.295  -2.686  1.00  0.00     0.008 A 
HETATM   14  N   LIG     1      -1.765  -0.324   0.111  1.00  0.00    -0.327 N 
ENDROOT
BRANCH  14  15
HETATM   15  C   LIG     1      -0.442  -0.050   0.695  1.00  0.00     0.108 C 
BRANCH  15  16
HETATM   16  C   LIG     1       0.373  -1.345   0.840  1.00  0.00     0.060 C 
BRANCH  16  17
HETATM   17  C   LIG     1       1.773  -1.076   1.408  1.00  0.00     0.252 C 
BRANCH  17  18
HETATM   18  N   LIG     1       2.544  -0.174   0.523  1.00  0.00     0.141 N 
HETATM   19  C   LIG     1       3.186  -0.923  -0.575  1.00  0.00     0.285 C 
HETATM   20  C   LIG     1       3.926   0.041  -1.513  1.00  0.00     0.285 C 
HETATM   21  N   LIG     1       4.911   0.877  -0.797  1.00  0.00     0.143 N 
HETATM   22  C   LIG     1       4.317   1.540   0.381  1.00  0.00     0.285 C 
HETATM   23  C   LIG     1       6.141   0.137  -0.464  1.00  0.00     0.285 C 
HETATM   24  C   LIG     1       3.567   0.557   1.292  1.00  0.00     0.285 C 
ENDBRANCH  17  18
ENDBRANCH  16  17
ENDBRANCH  15  16
ENDBRANCH  14  15
BRANCH   1  25
HETATM   25  C   LIG     1      -4.289   3.328   2.397  1.00  0.00     0.419 C 
HETATM   26  F   LIG     1      -3.852   4.254   1.468  1.00  0.00    -0.166 F 
HETATM   27  F   LIG     1      -5.564   3.680   2.806  1.00  0.00    -0.166 F 
HETATM   28  F   LIG     1      -3.449   3.362   3.496  1.00  0.00    -0.166 F 
ENDBRANCH   1  25
TORSDOF 5
