REMARK  16 active torsions:
REMARK  status: ('A' for Active; 'I' for Inactive)
REMARK    1  A    between atoms: C_2  and  C_12 
REMARK    2  A    between atoms: C_2  and  O_3 
REMARK    3  A    between atoms: O_3  and  C_4 
REMARK    4  A    between atoms: C_4  and  C_5 
REMARK    5  A    between atoms: C_5  and  C_6 
REMARK    6  A    between atoms: C_5  and  C_8 
REMARK    7  A    between atoms: C_8  and  C_9 
REMARK    8  A    between atoms: C_9  and  C_10 
REMARK    9  A    between atoms: C_17  and  C_18 
REMARK   10  A    between atoms: C_18  and  O_19 
REMARK   11  A    between atoms: O_19  and  C_20 
REMARK   12  A    between atoms: C_20  and  C_21 
REMARK   13  A    between atoms: C_21  and  C_22 
REMARK   14  A    between atoms: C_21  and  C_24 
REMARK   15  A    between atoms: C_24  and  C_25 
REMARK   16  A    between atoms: C_25  and  C_26 
ROOT
HETATM    1  C   LIG     1      -1.094  -1.214   1.508  1.00  0.00     0.068 A 
HETATM    2  C   LIG     1      -1.890  -2.261   2.000  1.00  0.00     0.005 A 
HETATM    3  C   LIG     1      -1.340  -3.521   2.240  1.00  0.00     0.000 A 
HETATM    4  C   LIG     1       0.011  -3.750   1.989  1.00  0.00     0.000 A 
HETATM    5  C   LIG     1       0.812  -2.729   1.473  1.00  0.00     0.005 A 
HETATM    6  C   LIG     1       0.275  -1.455   1.205  1.00  0.00     0.068 A 
ENDROOT
BRANCH   1   7
HETATM    7  C   LIG     1      -1.725   0.109   1.355  1.00  0.00     0.296 C 
HETATM    8  O   LIG     1      -1.182   1.133   1.857  1.00  0.00    -0.259 OA
BRANCH   7   9
HETATM    9  O   LIG     1      -2.942   0.209   0.676  1.00  0.00    -0.298 OA
BRANCH   9  10
HETATM   10  C   LIG     1      -3.612   1.448   0.466  1.00  0.00     0.152 C 
BRANCH  10  11
HETATM   11  C   LIG     1      -4.790   1.281  -0.514  1.00  0.00     0.030 C 
BRANCH  11  12
HETATM   12  C   LIG     1      -4.310   1.106  -1.982  1.00  0.00     0.003 C 
HETATM   13  C   LIG     1      -3.593  -0.215  -2.280  1.00  0.00     0.000 C 
ENDBRANCH  11  12
BRANCH  11  14
HETATM   14  C   LIG     1      -5.767   0.181  -0.022  1.00  0.00     0.003 C 
BRANCH  14  15
HETATM   15  C   LIG     1      -7.029  -0.011  -0.888  1.00  0.00     0.000 C 
BRANCH  15  16
HETATM   16  C   LIG     1      -7.910   1.243  -1.043  1.00  0.00     0.000 C 
HETATM   17  C   LIG     1      -8.447   1.763   0.289  1.00  0.00     0.000 C 
ENDBRANCH  15  16
ENDBRANCH  14  15
ENDBRANCH  11  14
ENDBRANCH  10  11
ENDBRANCH   9  10
ENDBRANCH   7   9
ENDBRANCH   1   7
BRANCH   6  18
HETATM   18  C   LIG     1       1.152  -0.446   0.555  1.00  0.00     0.296 C 
HETATM   19  O   LIG     1       0.657   0.531  -0.073  1.00  0.00    -0.259 OA
BRANCH  18  20
HETATM   20  O   LIG     1       2.540  -0.615   0.592  1.00  0.00    -0.298 OA
BRANCH  20  21
HETATM   21  C   LIG     1       3.446   0.291  -0.031  1.00  0.00     0.152 C 
BRANCH  21  22
HETATM   22  C   LIG     1       4.888  -0.256   0.048  1.00  0.00     0.030 C 
BRANCH  22  23
HETATM   23  C   LIG     1       5.139  -1.363  -1.010  1.00  0.00     0.003 C 
HETATM   24  C   LIG     1       4.239  -2.589  -0.841  1.00  0.00     0.000 C 
ENDBRANCH  22  23
BRANCH  22  25
HETATM   25  C   LIG     1       5.891   0.913  -0.123  1.00  0.00     0.003 C 
BRANCH  25  26
HETATM   26  C   LIG     1       7.353   0.509   0.150  1.00  0.00     0.000 C 
BRANCH  26  27
HETATM   27  C   LIG     1       8.271   1.722   0.369  1.00  0.00     0.000 C 
HETATM   28  C   LIG     1       8.435   2.572  -0.891  1.00  0.00     0.000 C 
ENDBRANCH  26  27
ENDBRANCH  25  26
ENDBRANCH  22  25
ENDBRANCH  21  22
ENDBRANCH  20  21
ENDBRANCH  18  20
ENDBRANCH   6  18
TORSDOF 16
