REMARK  3 active torsions:
REMARK  status: ('A' for Active; 'I' for Inactive)
REMARK    1  A    between atoms: C_2  and  C_4 
REMARK    2  A    between atoms: C_4  and  C_11 
REMARK    3  A    between atoms: C_4  and  C_5 
ROOT
HETATM    1  C   LIG     1      -0.162  -0.560   1.213  1.00  0.00     0.132 C 
ENDROOT
BRANCH   1   2
HETATM    2  C   LIG     1      -0.254  -2.061   1.338  1.00  0.00     0.193 C 
HETATM    3  O   LIG     1      -1.008  -2.567   2.213  1.00  0.00    -0.647 OA
HETATM    4  O   LIG     1       0.447  -2.896   0.471  1.00  0.00    -0.647 OA
ENDBRANCH   1   2
BRANCH   1   5
HETATM    5  C   LIG     1       1.170  -0.118   0.633  1.00  0.00    -0.008 A 
HETATM    6  C   LIG     1       1.490  -0.346  -0.721  1.00  0.00    -0.003 A 
HETATM    7  C   LIG     1       2.720   0.070  -1.238  1.00  0.00    -0.000 A 
HETATM    8  C   LIG     1       3.644   0.716  -0.415  1.00  0.00    -0.000 A 
HETATM    9  C   LIG     1       3.341   0.946   0.929  1.00  0.00    -0.000 A 
HETATM   10  C   LIG     1       2.112   0.532   1.452  1.00  0.00    -0.003 A 
ENDBRANCH   1   5
BRANCH   1  11
HETATM   11  C   LIG     1      -1.322   0.036   0.434  1.00  0.00    -0.008 A 
HETATM   12  C   LIG     1      -1.922  -0.639  -0.649  1.00  0.00    -0.003 A 
HETATM   13  C   LIG     1      -2.965  -0.044  -1.365  1.00  0.00    -0.000 A 
HETATM   14  C   LIG     1      -3.416   1.232  -1.018  1.00  0.00    -0.000 A 
HETATM   15  C   LIG     1      -2.821   1.917   0.043  1.00  0.00    -0.000 A 
HETATM   16  C   LIG     1      -1.777   1.327   0.762  1.00  0.00    -0.003 A 
ENDBRANCH   1  11
TORSDOF 3
