REMARK  4 active torsions:
REMARK  status: ('A' for Active; 'I' for Inactive)
REMARK    1  A    between atoms: C_22  and  C_27 
REMARK    2  A    between atoms: C_22  and  O_23 
REMARK    3  A    between atoms: O_23  and  C_24 
REMARK    4  A    between atoms: C_27  and  C_28 
ROOT
HETATM    1  O   LIG     1       6.431  -1.510   2.126  1.00  0.00    -0.287 OA
HETATM    2  C   LIG     1       5.438  -1.236   1.402  1.00  0.00     0.195 C 
HETATM    3  C   LIG     1       4.617  -2.310   0.840  1.00  0.00     0.038 C 
HETATM    4  C   LIG     1       3.623  -2.030  -0.008  1.00  0.00    -0.017 C 
HETATM    5  C   LIG     1       3.402  -0.628  -0.575  1.00  0.00     0.064 C 
HETATM    6  C   LIG     1       4.128  -0.600  -1.941  1.00  0.00     0.011 C 
HETATM    7  C   LIG     1       4.058   0.454   0.320  1.00  0.00    -0.035 C 
HETATM    8  C   LIG     1       3.429   1.837   0.367  1.00  0.00     0.023 C 
HETATM    9  C   LIG     1       1.945   1.769   0.816  1.00  0.00     0.007 C 
HETATM   10  C   LIG     1       1.338   0.362   0.594  1.00  0.00     0.034 C 
HETATM   11  C   LIG     1       1.863  -0.263  -0.745  1.00  0.00     0.168 C 
HETATM   12  F   LIG     1       1.816   0.704  -1.737  1.00  0.00    -0.237 F 
HETATM   13  C   LIG     1       0.900  -1.392  -1.233  1.00  0.00     0.182 C 
HETATM   14  O   LIG     1       0.790  -2.412  -0.271  1.00  0.00    -0.221 OA
HETATM   15  C   LIG     1      -0.527  -0.822  -1.541  1.00  0.00     0.038 C 
HETATM   16  C   LIG     1      -1.050   0.268  -0.516  1.00  0.00     0.033 C 
HETATM   17  C   LIG     1      -0.981   1.674  -1.206  1.00  0.00     0.003 C 
HETATM   18  C   LIG     1      -0.202   0.224   0.763  1.00  0.00     0.005 C 
HETATM   19  C   LIG     1      -0.941   1.063   1.792  1.00  0.00     0.003 C 
HETATM   20  C   LIG     1      -2.440   0.815   1.486  1.00  0.00     0.032 C 
HETATM   21  C   LIG     1      -3.238   2.130   1.604  1.00  0.00     0.003 C 
HETATM   22  C   LIG     1      -2.508   0.077   0.081  1.00  0.00     0.154 C 
HETATM   23  C   LIG     1       5.051   0.156   1.173  1.00  0.00     0.034 C 
ENDROOT
BRANCH  22  24
HETATM   24  C   LIG     1      -2.888  -1.418   0.219  1.00  0.00     0.208 C 
HETATM   25  O   LIG     1      -3.477  -1.950  -0.711  1.00  0.00    -0.291 OA
BRANCH  24  26
HETATM   26  C   LIG     1      -2.572  -2.295   1.413  1.00  0.00     0.249 C 
HETATM   27  O   LIG     1      -3.757  -2.679   2.055  1.00  0.00    -0.212 OA
ENDBRANCH  24  26
ENDBRANCH  22  24
BRANCH  22  28
HETATM   28  O   LIG     1      -3.468   0.704  -0.794  1.00  0.00    -0.299 OA
BRANCH  28  29
HETATM   29  C   LIG     1      -4.865   0.669  -0.648  1.00  0.00     0.273 C 
HETATM   30  C   LIG     1      -5.719   1.409  -1.619  1.00  0.00     0.106 C 
HETATM   31  O   LIG     1      -5.403   0.061   0.316  1.00  0.00    -0.264 OA
ENDBRANCH  28  29
ENDBRANCH  22  28
TORSDOF 4
