REMARK  1 active torsions:
REMARK  status: ('A' for Active; 'I' for Inactive)
REMARK    1  A    between atoms: C_2  and  C_3 
ROOT
HETATM    1  C   LIG     1       0.413   0.520  -0.321  1.00  0.00     0.077 A 
HETATM    2  C   LIG     1      -0.635   1.434  -0.524  1.00  0.00     0.007 A 
HETATM    3  C   LIG     1      -1.953   1.082  -0.226  1.00  0.00     0.000 A 
HETATM    4  C   LIG     1      -2.241  -0.188   0.275  1.00  0.00     0.001 A 
HETATM    5  C   LIG     1      -1.214  -1.115   0.461  1.00  0.00     0.014 A 
HETATM    6  C   LIG     1       0.115  -0.781   0.153  1.00  0.00     0.076 A 
HETATM    7  N   LIG     1       1.126  -1.792   0.269  1.00  0.00    -0.100 NA
ENDROOT
BRANCH   1   8
HETATM    8  C   LIG     1       1.798   0.963  -0.590  1.00  0.00     0.212 C 
HETATM    9  O   LIG     1       2.824   0.710   0.317  1.00  0.00    -0.644 OA
HETATM   10  O   LIG     1       2.052   1.625  -1.631  1.00  0.00    -0.644 OA
ENDBRANCH   1   8
TORSDOF 1
