REMARK  0 active torsions:
REMARK  status: ('A' for Active; 'I' for Inactive)
ROOT
HETATM    1  C   LIG     1      -1.251  -0.416  -1.168  1.00  0.00     0.034 C 
HETATM    2  C   LIG     1      -0.362  -0.070   0.034  1.00  0.00     0.156 A 
HETATM    3  C   LIG     1       0.806  -1.022   0.129  1.00  0.00     0.274 A 
HETATM    4  N   LIG     1       2.052  -0.352   0.001  1.00  0.00    -0.168 N 
HETATM    5 CL   LIG     1       3.635  -1.069  -0.099  1.00  0.00     0.025 Cl
HETATM    6  C   LIG     1       1.709   1.004  -0.197  1.00  0.00     0.358 A 
HETATM    7  O   LIG     1       2.555   1.919  -0.380  1.00  0.00    -0.244 OA
HETATM    8  O   LIG     1       0.708  -2.267   0.295  1.00  0.00    -0.269 OA
HETATM    9  N   LIG     1       0.305   1.220  -0.176  1.00  0.00    -0.219 N 
HETATM   10 CL   LIG     1      -0.479   2.764  -0.384  1.00  0.00     0.019 Cl
HETATM   11  C   LIG     1      -1.162  -0.055   1.342  1.00  0.00     0.034 C 
ENDROOT
TORSDOF 0
