REMARK  3 active torsions:
REMARK  status: ('A' for Active; 'I' for Inactive)
REMARK    1  A    between atoms: C_2  and  C_13 
REMARK    2  A    between atoms: C_2  and  C_3 
REMARK    3  A    between atoms: C_6  and  C_7 
ROOT
HETATM    1  O   LIG     1      -1.021  -1.943  -0.976  1.00  0.00    -0.216 OA
HETATM    2  C   LIG     1      -0.723  -0.681  -0.433  1.00  0.00     0.206 C 
ENDROOT
BRANCH   2   3
HETATM    3  C   LIG     1      -1.954   0.231  -0.547  1.00  0.00     0.013 A 
HETATM    4  C   LIG     1      -1.962   1.358  -1.399  1.00  0.00     0.019 A 
HETATM    5  C   LIG     1      -3.088   2.174  -1.482  1.00  0.00     0.099 A 
HETATM    6  N   LIG     1      -4.194   1.892  -0.754  1.00  0.00    -0.244 NA
HETATM    7  C   LIG     1      -4.253   0.817   0.071  1.00  0.00     0.081 A 
HETATM    8  C   LIG     1      -5.427   0.574   0.793  1.00  0.00     0.019 A 
HETATM    9  C   LIG     1      -3.137  -0.052   0.196  1.00  0.00     0.016 A 
HETATM   10  C   LIG     1      -5.515  -0.530   1.641  1.00  0.00     0.002 A 
HETATM   11  C   LIG     1      -4.432  -1.398   1.771  1.00  0.00     0.000 A 
HETATM   12  C   LIG     1      -3.252  -1.167   1.058  1.00  0.00     0.001 A 
ENDBRANCH   2   3
BRANCH   2  13
HETATM   13  C   LIG     1       0.613  -0.150  -1.038  1.00  0.00     0.254 C 
HETATM   14  C   LIG     1       1.119   1.147  -0.332  1.00  0.00     0.037 C 
HETATM   15  C   LIG     1       2.581   0.951   0.109  1.00  0.00     0.010 C 
HETATM   16  C   LIG     1       2.614  -0.240   1.101  1.00  0.00     0.056 C 
HETATM   17  C   LIG     1       3.412   0.597  -1.144  1.00  0.00     0.036 C 
HETATM   18  C   LIG     1       2.126  -1.519   0.355  1.00  0.00     0.255 C 
HETATM   19  N   LIG     1       1.677  -1.200  -1.026  1.00  0.00     0.138 N 
HETATM   20  C   LIG     1       2.849  -0.697  -1.786  1.00  0.00     0.250 C 
BRANCH  16  21
HETATM   21  C   LIG     1       3.986  -0.420   1.717  1.00  0.00    -0.024 C 
HETATM   22  C   LIG     1       4.488   0.475   2.574  1.00  0.00    -0.005 C 
ENDBRANCH  16  21
ENDBRANCH   2  13
TORSDOF 3
