REMARK  3 active torsions:
REMARK  status: ('A' for Active; 'I' for Inactive)
REMARK    1  A    between atoms: O_2  and  C_3 
REMARK    2  A    between atoms: C_7  and  C_8 
REMARK    3  A    between atoms: C_25  and  O_26 
ROOT
HETATM    1  C   LIG     1       4.069  -0.300   0.257  1.00  0.00     0.116 A 
HETATM    2  C   LIG     1       3.318  -1.487   0.041  1.00  0.00     0.026 A 
HETATM    3  C   LIG     1       1.960  -1.429  -0.305  1.00  0.00     0.001 A 
HETATM    4  C   LIG     1       1.347  -0.183  -0.409  1.00  0.00     0.015 A 
HETATM    5  C   LIG     1      -0.079   0.141  -0.796  1.00  0.00     0.182 A 
HETATM    6  O   LIG     1      -0.059   1.573  -0.893  1.00  0.00    -0.294 OA
HETATM    7  C   LIG     1       1.191   2.064  -0.548  1.00  0.00     0.298 A 
HETATM    8  C   LIG     1       2.078   0.969  -0.243  1.00  0.00     0.086 A 
HETATM    9  C   LIG     1       3.434   0.965   0.095  1.00  0.00     0.121 A 
HETATM   10  O   LIG     1       1.490   3.286  -0.535  1.00  0.00    -0.259 OA
ENDROOT
BRANCH   5  11
HETATM   11  C   LIG     1      -1.111  -0.299   0.269  1.00  0.00     0.273 C 
HETATM   12  C   LIG     1      -2.483   0.225  -0.133  1.00  0.00     0.010 A 
HETATM   13  C   LIG     1      -3.343  -0.584  -0.917  1.00  0.00    -0.020 A 
HETATM   14  C   LIG     1      -2.893   1.526   0.238  1.00  0.00     0.024 A 
HETATM   15  C   LIG     1      -2.912  -1.980  -1.222  1.00  0.00     0.061 C 
HETATM   16  C   LIG     1      -4.606  -0.103  -1.323  1.00  0.00     0.022 A 
HETATM   17  C   LIG     1      -2.267  -2.551   0.038  1.00  0.00     0.255 C 
HETATM   18  N   LIG     1      -1.057  -1.788   0.429  1.00  0.00     0.144 N 
HETATM   19  C   LIG     1      -0.640  -2.175   1.788  1.00  0.00     0.286 C 
HETATM   20  C   LIG     1      -4.962   1.186  -0.939  1.00  0.00     0.119 A 
HETATM   21  C   LIG     1      -4.142   1.966  -0.190  1.00  0.00     0.119 A 
HETATM   22  O   LIG     1      -6.126   1.875  -1.215  1.00  0.00    -0.300 OA
HETATM   23  O   LIG     1      -4.749   3.186   0.039  1.00  0.00    -0.300 OA
HETATM   24  C   LIG     1      -6.031   3.170  -0.605  1.00  0.00     0.304 A 
ENDBRANCH   5  11
BRANCH   9  25
HETATM   25  O   LIG     1       4.079   2.205   0.245  1.00  0.00    -0.326 OA
HETATM   26  C   LIG     1       5.435   2.405   0.628  1.00  0.00     0.181 C 
ENDBRANCH   9  25
BRANCH   1  27
HETATM   27  O   LIG     1       5.421  -0.361   0.623  1.00  0.00    -0.326 OA
HETATM   28  C   LIG     1       6.152  -1.563   0.848  1.00  0.00     0.181 C 
ENDBRANCH   1  27
TORSDOF 3
