REMARK  1 active torsions:
REMARK  status: ('A' for Active; 'I' for Inactive)
REMARK    1  A    between atoms: C_2  and  C_3 
ROOT
HETATM    1  C   LIG     1       0.669   0.153  -0.126  1.00  0.00     0.075 A 
HETATM    2  C   LIG     1       0.055  -1.113  -0.150  1.00  0.00     0.007 A 
HETATM    3  C   LIG     1      -1.334  -1.232  -0.054  1.00  0.00     0.000 A 
HETATM    4  C   LIG     1      -2.127  -0.091   0.068  1.00  0.00     0.001 A 
HETATM    5  C   LIG     1      -1.535   1.172   0.095  1.00  0.00     0.012 A 
HETATM    6  C   LIG     1      -0.143   1.306  -0.001  1.00  0.00     0.064 A 
HETATM    7 CL   LIG     1       0.532   2.930   0.100  1.00  0.00    -0.082 Cl
ENDROOT
BRANCH   1   8
HETATM    8  C   LIG     1       2.144   0.242  -0.249  1.00  0.00     0.212 C 
HETATM    9  O   LIG     1       2.672   1.190  -0.888  1.00  0.00    -0.644 OA
HETATM   10  O   LIG     1       2.972  -0.726   0.317  1.00  0.00    -0.644 OA
ENDBRANCH   1   8
TORSDOF 1
