REMARK  1 active torsions:
REMARK  status: ('A' for Active; 'I' for Inactive)
REMARK    1  A    between atoms: C_2  and  C_3 
ROOT
HETATM    1  C   LIG     1       0.310  -0.571   0.320  1.00  0.00     0.060 A 
HETATM    2  C   LIG     1      -0.702  -1.481   0.685  1.00  0.00     0.006 A 
HETATM    3  C   LIG     1      -2.046  -1.192   0.446  1.00  0.00     0.000 A 
HETATM    4  C   LIG     1      -2.406   0.010  -0.159  1.00  0.00    -0.000 A 
HETATM    5  C   LIG     1      -1.424   0.933  -0.518  1.00  0.00    -0.004 A 
HETATM    6  C   LIG     1      -0.064   0.668  -0.274  1.00  0.00    -0.016 A 
HETATM    7  C   LIG     1       0.948   1.720  -0.649  1.00  0.00     0.031 C 
ENDROOT
BRANCH   1   8
HETATM    8  C   LIG     1       1.725  -0.950   0.572  1.00  0.00     0.210 C 
HETATM    9  O   LIG     1       1.998  -1.808   1.455  1.00  0.00    -0.644 OA
HETATM   10  O   LIG     1       2.762  -0.401  -0.176  1.00  0.00    -0.644 OA
ENDBRANCH   1   8
TORSDOF 1
