REMARK  3 active torsions:
REMARK  status: ('A' for Active; 'I' for Inactive)
REMARK    1  A    between atoms: C_2  and  C_3 
REMARK    2  A    between atoms: C_2  and  O_10 
REMARK    3  A    between atoms: O_10  and  C_11 
ROOT
HETATM    1  O   LIG     1      -0.348  -0.250   2.102  1.00  0.00    -0.259 OA
HETATM    2  C   LIG     1       0.255   0.044   1.033  1.00  0.00     0.302 C 
ENDROOT
BRANCH   2   3
HETATM    3  C   LIG     1       1.732   0.099   1.025  1.00  0.00     0.089 A 
HETATM    4  C   LIG     1       2.446  -0.842   1.790  1.00  0.00     0.007 A 
HETATM    5  C   LIG     1       3.841  -0.880   1.752  1.00  0.00     0.000 A 
HETATM    6  C   LIG     1       4.543   0.019   0.949  1.00  0.00     0.002 A 
HETATM    7  C   LIG     1       3.852   0.971   0.199  1.00  0.00     0.028 A 
HETATM    8  C   LIG     1       2.454   1.037   0.243  1.00  0.00     0.136 A 
HETATM    9  O   LIG     1       1.827   2.063  -0.467  1.00  0.00    -0.190 OA
ENDBRANCH   2   3
BRANCH   2  10
HETATM   10  O   LIG     1      -0.463   0.314  -0.140  1.00  0.00    -0.273 OA
BRANCH  10  11
HETATM   11  C   LIG     1      -1.817   0.018  -0.351  1.00  0.00     0.103 A 
HETATM   12  C   LIG     1      -2.548   0.829  -1.228  1.00  0.00     0.025 A 
HETATM   13  C   LIG     1      -3.899   0.566  -1.478  1.00  0.00     0.002 A 
HETATM   14  C   LIG     1      -4.526  -0.520  -0.861  1.00  0.00     0.000 A 
HETATM   15  C   LIG     1      -3.801  -1.348  -0.001  1.00  0.00     0.002 A 
HETATM   16  C   LIG     1      -2.450  -1.087   0.252  1.00  0.00     0.025 A 
ENDBRANCH  10  11
ENDBRANCH   2  10
TORSDOF 3
