REMARK  2 active torsions:
REMARK  status: ('A' for Active; 'I' for Inactive)
REMARK    1  A    between atoms: C_2  and  C_3 
REMARK    2  A    between atoms: C_3  and  C_6 
ROOT
HETATM    1  C   LIG     1      -0.268  -0.234   0.139  1.00  0.00     0.031 C 
HETATM    2  C   LIG     1      -0.946  -1.280   1.053  1.00  0.00     0.003 C 
HETATM    3  C   LIG     1      -0.598  -0.580  -1.331  1.00  0.00     0.003 C 
ENDROOT
BRANCH   1   4
HETATM    4  C   LIG     1       1.270  -0.314   0.389  1.00  0.00     0.003 C 
HETATM    5  C   LIG     1       2.123   0.645  -0.448  1.00  0.00     0.000 C 
ENDBRANCH   1   4
BRANCH   1   6
HETATM    6  C   LIG     1      -0.805   1.180   0.490  1.00  0.00     0.182 C 
HETATM    7  O   LIG     1      -2.209   1.225   0.445  1.00  0.00    -0.221 OA
ENDBRANCH   1   6
TORSDOF 2
