REMARK  1 active torsions:
REMARK  status: ('A' for Active; 'I' for Inactive)
REMARK    1  A    between atoms: C_1  and  C_2 
ROOT
HETATM    1  C   LIG     1      -0.758  -0.623  -0.305  1.00  0.00     0.099 A 
HETATM    2  N   LIG     1      -1.383   0.566  -0.073  1.00  0.00    -0.244 NA
HETATM    3  C   LIG     1      -2.736   0.676  -0.004  1.00  0.00     0.081 A 
HETATM    4  C   LIG     1      -3.329   1.922   0.231  1.00  0.00     0.019 A 
HETATM    5  C   LIG     1      -4.722   2.031   0.300  1.00  0.00     0.002 A 
HETATM    6  C   LIG     1      -5.525   0.898   0.137  1.00  0.00     0.000 A 
HETATM    7  C   LIG     1      -4.941  -0.351  -0.097  1.00  0.00     0.002 A 
HETATM    8  C   LIG     1      -3.545  -0.469  -0.169  1.00  0.00     0.018 A 
HETATM    9  C   LIG     1      -2.929  -1.704  -0.395  1.00  0.00     0.003 A 
HETATM   10  C   LIG     1      -1.536  -1.787  -0.460  1.00  0.00     0.021 A 
ENDROOT
BRANCH   1  11
HETATM   11  C   LIG     1       0.723  -0.646  -0.353  1.00  0.00     0.099 A 
HETATM   12  C   LIG     1       1.442  -1.675  -0.992  1.00  0.00     0.021 A 
HETATM   13  C   LIG     1       2.838  -1.637  -1.013  1.00  0.00     0.003 A 
HETATM   14  C   LIG     1       3.516  -0.574  -0.407  1.00  0.00     0.018 A 
HETATM   15  C   LIG     1       2.767   0.448   0.213  1.00  0.00     0.081 A 
HETATM   16  C   LIG     1       4.918  -0.506  -0.411  1.00  0.00     0.002 A 
HETATM   17  N   LIG     1       1.409   0.384   0.220  1.00  0.00    -0.244 NA
HETATM   18  C   LIG     1       3.423   1.524   0.821  1.00  0.00     0.019 A 
HETATM   19  C   LIG     1       4.820   1.586   0.813  1.00  0.00     0.002 A 
HETATM   20  C   LIG     1       5.565   0.574   0.199  1.00  0.00     0.000 A 
ENDBRANCH   1  11
TORSDOF 1
