REMARK  2 active torsions:
REMARK  status: ('A' for Active; 'I' for Inactive)
REMARK    1  A    between atoms: C_2  and  C_3 
REMARK    2  A    between atoms: C_2  and  C_9 
ROOT
HETATM    1  O   LIG     1      -0.020  -1.779  -2.033  1.00  0.00    -0.287 OA
HETATM    2  C   LIG     1      -0.010  -0.903  -1.125  1.00  0.00     0.196 C 
ENDROOT
BRANCH   2   3
HETATM    3  C   LIG     1       1.290  -0.329  -0.700  1.00  0.00     0.039 A 
HETATM    4  C   LIG     1       2.455  -1.114  -0.751  1.00  0.00     0.003 A 
HETATM    5  C   LIG     1       3.688  -0.577  -0.369  1.00  0.00     0.000 A 
HETATM    6  C   LIG     1       3.772   0.751   0.056  1.00  0.00     0.000 A 
HETATM    7  C   LIG     1       2.624   1.546   0.095  1.00  0.00     0.000 A 
HETATM    8  C   LIG     1       1.389   1.013  -0.285  1.00  0.00     0.003 A 
ENDBRANCH   2   3
BRANCH   2   9
HETATM    9  C   LIG     1      -1.299  -0.485  -0.520  1.00  0.00     0.039 A 
HETATM   10  C   LIG     1      -2.474  -0.495  -1.294  1.00  0.00     0.003 A 
HETATM   11  C   LIG     1      -3.696  -0.120  -0.729  1.00  0.00     0.000 A 
HETATM   12  C   LIG     1      -3.761   0.257   0.615  1.00  0.00     0.000 A 
HETATM   13  C   LIG     1      -2.604   0.255   1.397  1.00  0.00     0.000 A 
HETATM   14  C   LIG     1      -1.379  -0.120   0.837  1.00  0.00     0.003 A 
ENDBRANCH   2   9
TORSDOF 2
