REMARK  2 active torsions:
REMARK  status: ('A' for Active; 'I' for Inactive)
REMARK    1  A    between atoms: C_3  and  C_8 
REMARK    2  A    between atoms: C_8  and  O_9 
ROOT
HETATM    1  O   LIG     1       0.285  -1.990  -0.147  1.00  0.00    -0.190 OA
HETATM    2  C   LIG     1      -0.658  -0.971  -0.017  1.00  0.00     0.136 A 
HETATM    3  C   LIG     1      -0.257   0.386   0.042  1.00  0.00     0.088 A 
HETATM    4  C   LIG     1      -1.248   1.380   0.174  1.00  0.00     0.007 A 
HETATM    5  C   LIG     1      -2.600   1.035   0.244  1.00  0.00     0.000 A 
HETATM    6  C   LIG     1      -2.985  -0.303   0.185  1.00  0.00     0.002 A 
HETATM    7  C   LIG     1      -2.020  -1.302   0.055  1.00  0.00     0.028 A 
ENDROOT
BRANCH   3   8
HETATM    8  C   LIG     1       1.173   0.782  -0.030  1.00  0.00     0.298 C 
HETATM    9  O   LIG     1       1.491   2.003   0.026  1.00  0.00    -0.259 OA
BRANCH   8  10
HETATM   10  O   LIG     1       2.174  -0.186  -0.161  1.00  0.00    -0.296 OA
HETATM   11  C   LIG     1       3.557   0.140  -0.234  1.00  0.00     0.185 C 
ENDBRANCH   8  10
ENDBRANCH   3   8
TORSDOF 2
