REMARK  2 active torsions:
REMARK  status: ('A' for Active; 'I' for Inactive)
REMARK    1  A    between atoms: N_2  and  C_3 
REMARK    2  A    between atoms: C_8  and  C_9 
ROOT
HETATM    1  C   LIG     1       0.264   0.048  -0.194  1.00  0.00     0.082 A 
HETATM    2  C   LIG     1       0.762   1.351  -0.393  1.00  0.00     0.019 A 
HETATM    3  C   LIG     1      -0.077   2.461  -0.285  1.00  0.00     0.002 A 
HETATM    4  C   LIG     1      -1.425   2.291   0.018  1.00  0.00     0.000 A 
HETATM    5  C   LIG     1      -1.937   1.012   0.234  1.00  0.00     0.008 A 
HETATM    6  C   LIG     1      -1.104  -0.120   0.151  1.00  0.00     0.082 A 
ENDROOT
BRANCH   6   7
HETATM    7  C   LIG     1      -1.680  -1.444   0.483  1.00  0.00     0.212 C 
HETATM    8  O   LIG     1      -0.908  -2.412   1.119  1.00  0.00    -0.644 OA
HETATM    9  O   LIG     1      -2.892  -1.685   0.235  1.00  0.00    -0.644 OA
ENDBRANCH   6   7
BRANCH   1  10
HETATM   10  N   LIG     1       1.119  -1.093  -0.411  1.00  0.00    -0.268 NA
HETATM   11  C   LIG     1       2.573  -1.035  -0.303  1.00  0.00     0.152 C 
ENDBRANCH   1  10
TORSDOF 2
