REMARK  0 active torsions:
REMARK  status: ('A' for Active; 'I' for Inactive)
ROOT
HETATM    1  C   LIG     1       0.215   0.632  -0.016  1.00  0.00     0.003 A 
HETATM    2  C   LIG     1       1.447   1.288  -0.139  1.00  0.00     0.021 A 
HETATM    3  C   LIG     1       2.614   0.532  -0.270  1.00  0.00     0.099 A 
HETATM    4  N   LIG     1       2.554  -0.826  -0.278  1.00  0.00    -0.242 NA
HETATM    5  C   LIG     1       1.375  -1.493  -0.161  1.00  0.00     0.099 A 
HETATM    6  C   LIG     1       0.175  -0.781  -0.027  1.00  0.00     0.019 A 
HETATM    7  C   LIG     1      -1.054  -1.446   0.096  1.00  0.00     0.002 A 
HETATM    8  C   LIG     1      -2.236  -0.711   0.228  1.00  0.00     0.000 A 
HETATM    9  C   LIG     1      -2.198   0.687   0.239  1.00  0.00     0.000 A 
HETATM   10  C   LIG     1      -0.979   1.359   0.117  1.00  0.00     0.000 A 
ENDROOT
TORSDOF 0
