REMARK  0 active torsions:
REMARK  status: ('A' for Active; 'I' for Inactive)
ROOT
HETATM    1  N   LIG     1       3.308   1.425   0.439  1.00  0.00    -0.191 NA
HETATM    2  C   LIG     1       2.253   0.970   0.299  1.00  0.00     0.103 C 
HETATM    3  C   LIG     1       0.936   0.403   0.124  1.00  0.00     0.089 A 
HETATM    4  C   LIG     1       0.757  -0.994   0.147  1.00  0.00     0.068 A 
HETATM    5 CL   LIG     1       2.114  -2.091   0.386  1.00  0.00    -0.082 Cl
HETATM    6  C   LIG     1      -0.522  -1.536  -0.024  1.00  0.00     0.012 A 
HETATM    7  C   LIG     1      -1.622  -0.699  -0.215  1.00  0.00     0.002 A 
HETATM    8  C   LIG     1      -1.451   0.687  -0.238  1.00  0.00     0.012 A 
HETATM    9  C   LIG     1      -0.178   1.244  -0.070  1.00  0.00     0.068 A 
HETATM   10 CL   LIG     1      -0.012   2.997  -0.106  1.00  0.00    -0.082 Cl
ENDROOT
TORSDOF 0
