REMARK  0 active torsions:
REMARK  status: ('A' for Active; 'I' for Inactive)
ROOT
HETATM    1  C   LIG     1      -3.330  -1.130  -0.026  1.00  0.00     0.052 C 
HETATM    2  C   LIG     1      -1.919  -0.633  -0.015  1.00  0.00     0.059 A 
HETATM    3  N   LIG     1      -0.891  -1.521   0.020  1.00  0.00    -0.250 NA
HETATM    4  C   LIG     1       0.407  -1.121   0.031  1.00  0.00     0.081 A 
HETATM    5  C   LIG     1       1.425  -2.081   0.068  1.00  0.00     0.019 A 
HETATM    6  C   LIG     1       2.763  -1.685   0.080  1.00  0.00     0.002 A 
HETATM    7  C   LIG     1       3.093  -0.328   0.055  1.00  0.00     0.000 A 
HETATM    8  C   LIG     1       2.086   0.641   0.018  1.00  0.00     0.001 A 
HETATM    9  C   LIG     1       0.728   0.259   0.005  1.00  0.00     0.014 A 
HETATM   10  C   LIG     1      -0.328   1.202  -0.032  1.00  0.00    -0.019 A 
HETATM   11  C   LIG     1      -0.070   2.686  -0.061  1.00  0.00     0.031 C 
HETATM   12  C   LIG     1      -1.654   0.740  -0.042  1.00  0.00     0.011 A 
ENDROOT
TORSDOF 0
