REMARK  0 active torsions:
REMARK  status: ('A' for Active; 'I' for Inactive)
ROOT
HETATM    1  O   LIG     1       2.048   1.172   0.357  1.00  0.00    -0.188 OA
HETATM    2  C   LIG     1       0.792   0.583   0.201  1.00  0.00     0.156 A 
HETATM    3  C   LIG     1       0.612  -0.690  -0.396  1.00  0.00     0.156 A 
HETATM    4  O   LIG     1       1.676  -1.456  -0.874  1.00  0.00    -0.188 OA
HETATM    5  C   LIG     1      -0.681  -1.216  -0.518  1.00  0.00     0.029 A 
HETATM    6  C   LIG     1      -1.787  -0.497  -0.058  1.00  0.00     0.002 A 
HETATM    7  C   LIG     1      -1.610   0.756   0.529  1.00  0.00     0.002 A 
HETATM    8  C   LIG     1      -0.327   1.293   0.657  1.00  0.00     0.029 A 
ENDROOT
TORSDOF 0
