REMARK  0 active torsions:
REMARK  status: ('A' for Active; 'I' for Inactive)
ROOT
HETATM    1  C   LIG     1       1.220   0.589   0.382  1.00  0.00     0.000 A 
HETATM    2  C   LIG     1       2.444   1.165   0.758  1.00  0.00     0.000 A 
HETATM    3  C   LIG     1       3.645   0.506   0.481  1.00  0.00     0.000 A 
HETATM    4  C   LIG     1       3.635  -0.729  -0.172  1.00  0.00     0.000 A 
HETATM    5  C   LIG     1       2.424  -1.314  -0.551  1.00  0.00     0.000 A 
HETATM    6  C   LIG     1       1.210  -0.663  -0.279  1.00  0.00     0.000 A 
HETATM    7  C   LIG     1      -0.010  -1.244  -0.657  1.00  0.00     0.000 A 
HETATM    8  C   LIG     1      -1.220  -0.589  -0.382  1.00  0.00     0.000 A 
HETATM    9  C   LIG     1      -1.210   0.663   0.279  1.00  0.00     0.000 A 
HETATM   10  C   LIG     1      -2.424   1.314   0.551  1.00  0.00     0.000 A 
HETATM   11  C   LIG     1      -3.635   0.729   0.172  1.00  0.00     0.000 A 
HETATM   12  C   LIG     1      -3.645  -0.506  -0.481  1.00  0.00     0.000 A 
HETATM   13  C   LIG     1      -2.444  -1.165  -0.758  1.00  0.00     0.000 A 
HETATM   14  C   LIG     1       0.010   1.244   0.657  1.00  0.00     0.000 A 
ENDROOT
TORSDOF 0
