REMARK  3 active torsions:
REMARK  status: ('A' for Active; 'I' for Inactive)
REMARK    1  A    between atoms: C_2  and  C_3 
REMARK    2  A    between atoms: C_2  and  O_6 
REMARK    3  A    between atoms: O_6  and  C_7 
ROOT
HETATM    1  C   LIG     1      -0.642  -0.569   0.136  1.00  0.00     0.105 A 
HETATM    2  C   LIG     1      -0.816   0.741  -0.357  1.00  0.00     0.026 A 
HETATM    3  C   LIG     1      -2.099   1.263  -0.544  1.00  0.00     0.013 A 
HETATM    4  C   LIG     1      -3.223   0.491  -0.239  1.00  0.00     0.059 A 
HETATM    5 CL   LIG     1      -4.832   1.150  -0.474  1.00  0.00    -0.082 Cl
HETATM    6  C   LIG     1      -3.063  -0.804   0.258  1.00  0.00     0.025 A 
HETATM    7  C   LIG     1      -1.781  -1.332   0.448  1.00  0.00     0.081 A 
HETATM    8 CL   LIG     1      -1.613  -2.966   1.073  1.00  0.00    -0.080 Cl
ENDROOT
BRANCH   1   9
HETATM    9  O   LIG     1       0.624  -1.151   0.345  1.00  0.00    -0.322 OA
BRANCH   9  10
HETATM   10  C   LIG     1       1.903  -0.656  -0.077  1.00  0.00     0.208 C 
HETATM   11  C   LIG     1       1.988  -0.565  -1.606  1.00  0.00     0.044 C 
BRANCH  10  12
HETATM   12  C   LIG     1       2.277   0.632   0.605  1.00  0.00     0.214 C 
HETATM   13  O   LIG     1       3.403   1.335   0.186  1.00  0.00    -0.646 OA
HETATM   14  O   LIG     1       1.610   1.053   1.589  1.00  0.00    -0.646 OA
ENDBRANCH  10  12
ENDBRANCH   9  10
ENDBRANCH   1   9
TORSDOF 3
