REMARK  0 active torsions:
REMARK  status: ('A' for Active; 'I' for Inactive)
ROOT
HETATM    1  O   LIG     1      -2.227   1.032  -0.015  1.00  0.00    -0.260 OA
HETATM    2  C   LIG     1      -1.081   0.513  -0.007  1.00  0.00     0.341 A 
HETATM    3  N   LIG     1       0.134   1.250   0.009  1.00  0.00    -0.147 NA
HETATM    4  C   LIG     1       1.147   0.242   0.013  1.00  0.00     0.374 A 
HETATM    5  O   LIG     1       2.378   0.502   0.026  1.00  0.00    -0.242 OA
HETATM    6  C   LIG     1      -0.780  -0.906  -0.013  1.00  0.00     0.341 A 
HETATM    7  N   LIG     1       0.629  -1.089  -0.001  1.00  0.00    -0.147 NA
HETATM    8  O   LIG     1      -1.619  -1.845  -0.027  1.00  0.00    -0.260 OA
ENDROOT
TORSDOF 0
