REMARK  1 active torsions:
REMARK  status: ('A' for Active; 'I' for Inactive)
REMARK    1  A    between atoms: C_2  and  C_3 
ROOT
HETATM    1  C   LIG     1      -1.592  -0.311  -0.171  1.00  0.00     0.044 A 
HETATM    2  C   LIG     1      -0.440  -1.120  -0.307  1.00  0.00     0.030 A 
HETATM    3  C   LIG     1       0.802  -0.532  -0.087  1.00  0.00     0.119 A 
HETATM    4  O   LIG     1       2.054  -1.112  -0.160  1.00  0.00    -0.300 OA
HETATM    5  C   LIG     1       3.028  -0.105   0.149  1.00  0.00     0.304 A 
HETATM    6  O   LIG     1       2.267   1.085   0.405  1.00  0.00    -0.300 OA
HETATM    7  C   LIG     1       0.929   0.776   0.249  1.00  0.00     0.119 A 
HETATM    8  C   LIG     1      -0.174   1.610   0.395  1.00  0.00     0.026 A 
HETATM    9  C   LIG     1      -1.450   1.056   0.181  1.00  0.00     0.005 A 
ENDROOT
BRANCH   1  10
HETATM   10  C   LIG     1      -2.939  -0.868  -0.389  1.00  0.00     0.234 C 
HETATM   11  O   LIG     1      -3.099  -2.077  -0.703  1.00  0.00    -0.283 OA
ENDBRANCH   1  10
TORSDOF 1
