REMARK  0 active torsions:
REMARK  status: ('A' for Active; 'I' for Inactive)
ROOT
HETATM    1 CL   LIG     1       2.277   1.568   1.037  1.00  0.00    -0.080 Cl
HETATM    2  C   LIG     1       0.873   0.698   0.436  1.00  0.00     0.084 A 
HETATM    3  C   LIG     1      -0.375   1.334   0.465  1.00  0.00     0.025 A 
HETATM    4  C   LIG     1      -1.515   0.673  -0.004  1.00  0.00     0.059 A 
HETATM    5 CL   LIG     1      -3.074   1.476   0.036  1.00  0.00    -0.082 Cl
HETATM    6  C   LIG     1      -1.411  -0.628  -0.505  1.00  0.00     0.014 A 
HETATM    7  C   LIG     1      -0.169  -1.268  -0.537  1.00  0.00     0.029 A 
HETATM    8  C   LIG     1       0.978  -0.614  -0.069  1.00  0.00     0.141 A 
HETATM    9  O   LIG     1       2.199  -1.287  -0.118  1.00  0.00    -0.189 OA
ENDROOT
TORSDOF 0
