REMARK  0 active torsions:
REMARK  status: ('A' for Active; 'I' for Inactive)
ROOT
HETATM    1  C   LIG     1       0.303  -0.706  -0.095  1.00  0.00     0.019 A 
HETATM    2  C   LIG     1      -0.899  -1.411  -0.114  1.00  0.00     0.002 A 
HETATM    3  C   LIG     1      -2.091  -0.677   0.029  1.00  0.00     0.000 A 
HETATM    4  C   LIG     1      -2.053   0.727   0.186  1.00  0.00     0.002 A 
HETATM    5  C   LIG     1      -0.822   1.409   0.200  1.00  0.00     0.019 A 
HETATM    6  C   LIG     1       0.342   0.655   0.057  1.00  0.00     0.081 A 
HETATM    7  N   LIG     1       1.608   1.100   0.043  1.00  0.00    -0.244 NA
HETATM    8  C   LIG     1       2.384   0.003  -0.120  1.00  0.00     0.099 A 
HETATM    9  C   LIG     1       1.604  -1.145  -0.210  1.00  0.00     0.022 A 
ENDROOT
TORSDOF 0
