REMARK  5 active torsions:
REMARK  status: ('A' for Active; 'I' for Inactive)
REMARK    1  A    between atoms: C_2  and  C_3 
REMARK    2  A    between atoms: C_3  and  N_4 
REMARK    3  A    between atoms: N_4  and  C_11 
REMARK    4  A    between atoms: N_4  and  C_5 
REMARK    5  A    between atoms: C_11  and  C_12 
ROOT
HETATM    1  N   LIG     1      -0.769   0.076   0.269  1.00  0.00    -0.343 N 
ENDROOT
BRANCH   1   2
HETATM    2  C   LIG     1      -1.671   1.140  -0.199  1.00  0.00     0.137 C 
BRANCH   2   3
HETATM    3  C   LIG     1      -1.258   2.496   0.373  1.00  0.00     0.206 C 
HETATM    4  O   LIG     1      -0.045   2.909  -0.191  1.00  0.00    -0.219 OA
ENDBRANCH   2   3
ENDBRANCH   1   2
BRANCH   1   5
HETATM    5  C   LIG     1      -1.226  -0.890   1.278  1.00  0.00     0.137 C 
BRANCH   5   6
HETATM    6  C   LIG     1      -1.407  -2.270   0.651  1.00  0.00     0.206 C 
HETATM    7  O   LIG     1      -1.884  -3.165   1.617  1.00  0.00    -0.219 OA
ENDBRANCH   5   6
ENDBRANCH   1   5
BRANCH   1   8
HETATM    8  C   LIG     1       0.567  -0.022  -0.262  1.00  0.00     0.056 A 
HETATM    9  C   LIG     1       0.773  -0.161  -1.645  1.00  0.00     0.017 A 
HETATM   10  C   LIG     1       2.070  -0.256  -2.158  1.00  0.00     0.002 A 
HETATM   11  C   LIG     1       3.169  -0.211  -1.297  1.00  0.00     0.000 A 
HETATM   12  C   LIG     1       2.974  -0.073   0.080  1.00  0.00     0.002 A 
HETATM   13  C   LIG     1       1.678   0.021   0.597  1.00  0.00     0.017 A 
ENDBRANCH   1   8
TORSDOF 5
