REMARK  0 active torsions:
REMARK  status: ('A' for Active; 'I' for Inactive)
ROOT
HETATM    1 CL   LIG     1      -2.858   1.294   0.009  1.00  0.00    -0.082 Cl
HETATM    2  C   LIG     1      -1.252   0.578   0.004  1.00  0.00     0.068 A 
HETATM    3  C   LIG     1      -1.074  -0.817   0.041  1.00  0.00     0.069 A 
HETATM    4 CL   LIG     1      -2.450  -1.910   0.096  1.00  0.00    -0.082 Cl
HETATM    5  C   LIG     1       0.219  -1.354   0.036  1.00  0.00     0.024 A 
HETATM    6  C   LIG     1       1.333  -0.508  -0.007  1.00  0.00     0.059 A 
HETATM    7 CL   LIG     1       2.951  -1.186  -0.014  1.00  0.00    -0.082 Cl
HETATM    8  C   LIG     1       1.155   0.879  -0.044  1.00  0.00     0.012 A 
HETATM    9  C   LIG     1      -0.134   1.420  -0.039  1.00  0.00     0.013 A 
ENDROOT
TORSDOF 0
