REMARK  2 active torsions:
REMARK  status: ('A' for Active; 'I' for Inactive)
REMARK    1  A    between atoms: C_3  and  O_4 
REMARK    2  A    between atoms: C_7  and  C_8 
ROOT
HETATM    1  O   LIG     1      -1.740   2.502  -0.637  1.00  0.00    -0.188 OA
HETATM    2  C   LIG     1      -0.674   1.668  -0.301  1.00  0.00     0.153 A 
HETATM    3  C   LIG     1      -0.881   0.313   0.012  1.00  0.00     0.120 A 
HETATM    4  C   LIG     1       0.226  -0.495   0.343  1.00  0.00     0.032 A 
HETATM    5  C   LIG     1       1.528   0.039   0.356  1.00  0.00     0.067 A 
HETATM    6  C   LIG     1       1.709   1.398   0.054  1.00  0.00     0.008 A 
HETATM    7  C   LIG     1       0.617   2.202  -0.276  1.00  0.00     0.030 A 
ENDROOT
BRANCH   5   8
HETATM    8  C   LIG     1       2.699  -0.802   0.706  1.00  0.00     0.211 C 
HETATM    9  O   LIG     1       2.679  -2.188   0.553  1.00  0.00    -0.644 OA
HETATM   10  O   LIG     1       3.751  -0.261   1.139  1.00  0.00    -0.644 OA
ENDBRANCH   5   8
BRANCH   3  11
HETATM   11  O   LIG     1      -2.191  -0.194  -0.013  1.00  0.00    -0.326 OA
HETATM   12  C   LIG     1      -2.543  -1.542   0.278  1.00  0.00     0.181 C 
ENDBRANCH   3  11
TORSDOF 2
