REMARK  4 active torsions:
REMARK  status: ('A' for Active; 'I' for Inactive)
REMARK    1  A    between atoms: C_2  and  C_7 
REMARK    2  A    between atoms: C_2  and  O_3 
REMARK    3  A    between atoms: O_3  and  C_4 
REMARK    4  A    between atoms: C_4  and  C_5 
ROOT
HETATM    1  C   LIG     1       0.945   0.326  -0.184  1.00  0.00     0.067 A 
HETATM    2  C   LIG     1       1.821   0.483  -1.273  1.00  0.00     0.035 A 
HETATM    3  C   LIG     1       3.192   0.232  -1.127  1.00  0.00     0.158 A 
HETATM    4  O   LIG     1       4.051   0.391  -2.215  1.00  0.00    -0.188 OA
HETATM    5  C   LIG     1       3.702  -0.180   0.116  1.00  0.00     0.181 A 
HETATM    6  O   LIG     1       5.065  -0.433   0.278  1.00  0.00    -0.186 OA
HETATM    7  C   LIG     1       2.832  -0.338   1.207  1.00  0.00     0.158 A 
HETATM    8  O   LIG     1       3.307  -0.746   2.454  1.00  0.00    -0.188 OA
HETATM    9  C   LIG     1       1.464  -0.086   1.054  1.00  0.00     0.035 A 
ENDROOT
BRANCH   1  10
HETATM   10  C   LIG     1      -0.503   0.590  -0.336  1.00  0.00     0.296 C 
HETATM   11  O   LIG     1      -0.966   0.959  -1.451  1.00  0.00    -0.259 OA
BRANCH  10  12
HETATM   12  O   LIG     1      -1.358   0.434   0.763  1.00  0.00    -0.298 OA
BRANCH  12  13
HETATM   13  C   LIG     1      -2.772   0.612   0.692  1.00  0.00     0.152 C 
BRANCH  13  14
HETATM   14  C   LIG     1      -3.430  -0.595   0.019  1.00  0.00     0.033 C 
HETATM   15  C   LIG     1      -4.948  -0.446  -0.019  1.00  0.00     0.003 C 
ENDBRANCH  13  14
ENDBRANCH  12  13
ENDBRANCH  10  12
ENDBRANCH   1  10
TORSDOF 4
