REMARK  3 active torsions:
REMARK  status: ('A' for Active; 'I' for Inactive)
REMARK    1  A    between atoms: C_2  and  C_3 
REMARK    2  A    between atoms: C_2  and  O_11 
REMARK    3  A    between atoms: C_8  and  O_9 
ROOT
HETATM    1  C   LIG     1       0.808  -0.477   0.160  1.00  0.00     0.063 A 
HETATM    2  C   LIG     1       0.066  -1.548   0.689  1.00  0.00     0.007 A 
HETATM    3  C   LIG     1      -1.328  -1.480   0.752  1.00  0.00     0.024 A 
HETATM    4  C   LIG     1       0.125   0.660  -0.304  1.00  0.00     0.007 A 
HETATM    5  C   LIG     1      -1.270   0.725  -0.241  1.00  0.00     0.024 A 
HETATM    6  C   LIG     1      -2.008  -0.349   0.290  1.00  0.00     0.094 A 
ENDROOT
BRANCH   1   7
HETATM    7  C   LIG     1       2.285  -0.542   0.091  1.00  0.00     0.296 C 
HETATM    8  O   LIG     1       2.895  -1.565   0.509  1.00  0.00    -0.259 OA
BRANCH   7   9
HETATM    9  O   LIG     1       3.006   0.534  -0.439  1.00  0.00    -0.296 OA
HETATM   10  C   LIG     1       4.426   0.535  -0.534  1.00  0.00     0.185 C 
ENDBRANCH   7   9
ENDBRANCH   1   7
BRANCH   6  11
HETATM   11  O   LIG     1      -3.408  -0.331   0.375  1.00  0.00    -0.328 OA
HETATM   12  C   LIG     1      -4.226   0.752  -0.056  1.00  0.00     0.181 C 
ENDBRANCH   6  11
TORSDOF 3
