REMARK  3 active torsions:
REMARK  status: ('A' for Active; 'I' for Inactive)
REMARK    1  A    between atoms: C_2  and  N_3 
REMARK    2  A    between atoms: N_3  and  C_4 
REMARK    3  A    between atoms: N_3  and  C_6 
ROOT
HETATM    1  N   LIG     1      -0.024  -0.017  -0.098  1.00  0.00     0.137 N 
ENDROOT
BRANCH   1   2
HETATM    2  C   LIG     1       1.139  -0.403   0.734  1.00  0.00     0.250 C 
HETATM    3  C   LIG     1       2.219  -1.044  -0.133  1.00  0.00     0.037 C 
ENDBRANCH   1   2
BRANCH   1   4
HETATM    4  C   LIG     1      -0.972  -1.146  -0.247  1.00  0.00     0.250 C 
HETATM    5  C   LIG     1      -1.681  -1.066  -1.596  1.00  0.00     0.037 C 
ENDBRANCH   1   4
BRANCH   1   6
HETATM    6  C   LIG     1      -0.702   1.179   0.455  1.00  0.00     0.250 C 
HETATM    7  C   LIG     1      -0.046   2.451  -0.076  1.00  0.00     0.037 C 
ENDBRANCH   1   6
TORSDOF 3
