REMARK  3 active torsions:
REMARK  status: ('A' for Active; 'I' for Inactive)
REMARK    1  A    between atoms: C_2  and  C_4 
REMARK    2  A    between atoms: C_4  and  O_5 
REMARK    3  A    between atoms: O_5  and  C_6 
ROOT
HETATM    1  C   LIG     1      -0.439  -0.446  -0.494  1.00  0.00     0.095 A 
HETATM    2  C   LIG     1      -0.161   0.075   0.785  1.00  0.00     0.025 A 
HETATM    3  C   LIG     1      -1.200   0.543   1.595  1.00  0.00     0.013 A 
HETATM    4  C   LIG     1      -2.522   0.496   1.140  1.00  0.00     0.058 A 
HETATM    5 CL   LIG     1      -3.823   1.084   2.158  1.00  0.00    -0.082 Cl
HETATM    6  C   LIG     1      -2.804  -0.023  -0.127  1.00  0.00     0.013 A 
HETATM    7  C   LIG     1      -1.766  -0.492  -0.939  1.00  0.00     0.025 A 
ENDROOT
BRANCH   1   8
HETATM    8  O   LIG     1       0.565  -0.930  -1.350  1.00  0.00    -0.319 OA
BRANCH   8   9
HETATM    9  C   LIG     1       1.967  -0.884  -1.085  1.00  0.00     0.246 C 
BRANCH   9  10
HETATM   10  C   LIG     1       2.473   0.526  -1.145  1.00  0.00     0.217 C 
HETATM   11  O   LIG     1       2.203   1.245  -2.142  1.00  0.00    -0.645 OA
HETATM   12  O   LIG     1       3.264   1.044  -0.123  1.00  0.00    -0.645 OA
ENDBRANCH   9  10
ENDBRANCH   8   9
ENDBRANCH   1   8
TORSDOF 3
