REMARK  2 active torsions:
REMARK  status: ('A' for Active; 'I' for Inactive)
REMARK       I    between atoms: N_2  and  C_3 
REMARK    1  A    between atoms: C_3  and  O_4 
REMARK    2  A    between atoms: O_4  and  C_5 
ROOT
HETATM    1  C   LIG     1      -0.053   0.927  -0.085  1.00  0.00     0.085 C 
HETATM    2  C   LIG     1      -0.521   1.927  -0.840  1.00  0.00     0.058 C 
HETATM    3  C   LIG     1      -1.957   2.065  -1.135  1.00  0.00     0.175 C 
HETATM    4  C   LIG     1      -2.957   1.110  -0.545  1.00  0.00     0.070 C 
HETATM    5  C   LIG     1      -2.314  -0.258  -0.199  1.00  0.00     0.013 C 
HETATM    6  C   LIG     1      -3.302  -1.078   0.656  1.00  0.00     0.001 C 
HETATM    7  C   LIG     1      -1.012  -0.024   0.611  1.00  0.00     0.052 C 
HETATM    8  C   LIG     1      -2.007  -1.053  -1.489  1.00  0.00     0.001 C 
HETATM    9  O   LIG     1      -2.355   3.017  -1.856  1.00  0.00    -0.291 OA
ENDROOT
BRANCH   1  10
HETATM   10  O   LIG     1       1.329   0.857   0.133  1.00  0.00    -0.264 OA
BRANCH  10  11
HETATM   11  C   LIG     1       2.065  -0.333   0.220  1.00  0.00     0.369 C 
HETATM   12  N   LIG     1       3.381  -0.315   0.799  1.00  0.00    -0.292 N 
HETATM   13  C   LIG     1       4.165  -1.551   0.866  1.00  0.00     0.131 C 
HETATM   14  C   LIG     1       3.916   0.943   1.324  1.00  0.00     0.131 C 
HETATM   15  O   LIG     1       1.601  -1.404  -0.258  1.00  0.00    -0.238 OA
ENDBRANCH  10  11
ENDBRANCH   1  10
TORSDOF 2
