REMARK  3 active torsions:
REMARK  status: ('A' for Active; 'I' for Inactive)
REMARK    1  A    between atoms: C_2  and  C_4 
REMARK    2  A    between atoms: C_4  and  O_5 
REMARK    3  A    between atoms: O_5  and  C_6 
ROOT
HETATM    1  C   LIG     1       0.325  -0.209   0.317  1.00  0.00     0.095 A 
HETATM    2  C   LIG     1       1.024  -1.207   1.009  1.00  0.00     0.024 A 
HETATM    3  C   LIG     1       2.381  -1.429   0.756  1.00  0.00     0.002 A 
HETATM    4  C   LIG     1       3.051  -0.654  -0.193  1.00  0.00     0.000 A 
HETATM    5  C   LIG     1       2.365   0.344  -0.890  1.00  0.00     0.002 A 
HETATM    6  C   LIG     1       1.008   0.569  -0.639  1.00  0.00     0.024 A 
ENDROOT
BRANCH   1   7
HETATM    7  O   LIG     1      -1.035  -0.025   0.606  1.00  0.00    -0.319 OA
BRANCH   7   8
HETATM    8  C   LIG     1      -1.866   0.948  -0.020  1.00  0.00     0.246 C 
BRANCH   8   9
HETATM    9  C   LIG     1      -3.250   0.840   0.534  1.00  0.00     0.217 C 
HETATM   10  O   LIG     1      -3.635   1.640   1.426  1.00  0.00    -0.645 OA
HETATM   11  O   LIG     1      -4.106  -0.167   0.101  1.00  0.00    -0.645 OA
ENDBRANCH   8   9
ENDBRANCH   7   8
ENDBRANCH   1   7
TORSDOF 3
