REMARK  4 active torsions:
REMARK  status: ('A' for Active; 'I' for Inactive)
REMARK    1  A    between atoms: C_2  and  N_3 
REMARK    2  A    between atoms: N_3  and  C_4 
REMARK    3  A    between atoms: C_6  and  N_7 
REMARK    4  A    between atoms: N_7  and  C_8 
ROOT
HETATM    1  C   LIG     1       1.124  -0.268  -0.727  1.00  0.00     0.763 A 
HETATM    2  N   LIG     1      -0.137  -0.061  -1.186  1.00  0.00     0.134 NA
HETATM    3  C   LIG     1      -1.210  -0.361  -0.409  1.00  0.00     0.763 A 
HETATM    4  N   LIG     1      -1.016  -0.878   0.833  1.00  0.00    -0.028 NA
HETATM    5  C   LIG     1       0.242  -1.089   1.294  1.00  0.00     0.259 A 
HETATM    6 CL   LIG     1       0.486  -1.753   2.895  1.00  0.00    -0.040 Cl
HETATM    7  N   LIG     1       1.310  -0.786   0.516  1.00  0.00    -0.028 NA
ENDROOT
BRANCH   1   8
HETATM    8  N   LIG     1       2.245   0.051  -1.562  1.00  0.00    -0.085 NA
BRANCH   8   9
HETATM    9  C   LIG     1       3.631  -0.104  -1.124  1.00  0.00     0.145 C 
HETATM   10  C   LIG     1       4.011   0.994  -0.137  1.00  0.00     0.029 C 
ENDBRANCH   8   9
ENDBRANCH   1   8
BRANCH   3  11
HETATM   11  N   LIG     1      -2.534  -0.139  -0.910  1.00  0.00    -0.085 NA
BRANCH  11  12
HETATM   12  C   LIG     1      -3.736  -0.417  -0.127  1.00  0.00     0.145 C 
HETATM   13  C   LIG     1      -3.949   0.659   0.932  1.00  0.00     0.029 C 
ENDBRANCH  11  12
ENDBRANCH   3  11
TORSDOF 4
