REMARK  1 active torsions:
REMARK  status: ('A' for Active; 'I' for Inactive)
REMARK       I    between atoms: C_2  and  N_3 
REMARK    1  A    between atoms: N_3  and  C_4 
ROOT
HETATM    1  C   LIG     1      -0.243   0.112  -0.748  1.00  0.00     0.084 A 
HETATM    2  C   LIG     1       0.793  -0.629  -1.335  1.00  0.00     0.020 A 
HETATM    3  C   LIG     1       2.042  -0.715  -0.713  1.00  0.00     0.016 A 
HETATM    4  C   LIG     1       2.277  -0.046   0.496  1.00  0.00     0.070 A 
HETATM    5  N   LIG     1       3.555  -0.133   1.131  1.00  0.00    -0.101 NA
HETATM    6  C   LIG     1       1.252   0.716   1.073  1.00  0.00     0.016 A 
HETATM    7  C   LIG     1       0.003   0.802   0.453  1.00  0.00     0.020 A 
ENDROOT
BRANCH   1   8
HETATM    8  N   LIG     1      -1.510   0.209  -1.420  1.00  0.00    -0.212 NA
HETATM    9  C   LIG     1      -2.775   0.353  -0.755  1.00  0.00     0.256 C 
HETATM   10  C   LIG     1      -3.029  -0.228   0.603  1.00  0.00     0.100 C 
HETATM   11  O   LIG     1      -3.719   0.935  -1.352  1.00  0.00    -0.270 OA
ENDBRANCH   1   8
TORSDOF 1
