REMARK  2 active torsions:
REMARK  status: ('A' for Active; 'I' for Inactive)
REMARK       I    between atoms: C_2  and  N_3 
REMARK    1  A    between atoms: N_3  and  C_4 
REMARK    2  A    between atoms: C_9  and  C_10 
ROOT
HETATM    1  C   LIG     1      -0.167  -0.043   0.425  1.00  0.00     0.084 A 
HETATM    2  C   LIG     1       0.648  -0.829   1.253  1.00  0.00     0.019 A 
HETATM    3  C   LIG     1       2.012  -0.969   0.980  1.00  0.00     0.005 A 
HETATM    4  C   LIG     1       0.414   0.634  -0.661  1.00  0.00     0.019 A 
HETATM    5  C   LIG     1       1.778   0.496  -0.934  1.00  0.00     0.005 A 
HETATM    6  C   LIG     1       2.587  -0.311  -0.118  1.00  0.00     0.042 A 
ENDROOT
BRANCH   1   7
HETATM    7  N   LIG     1      -1.562   0.101   0.743  1.00  0.00    -0.212 NA
HETATM    8  C   LIG     1      -2.600   0.255  -0.237  1.00  0.00     0.256 C 
HETATM    9  C   LIG     1      -3.986   0.600   0.201  1.00  0.00     0.100 C 
HETATM   10  O   LIG     1      -2.366   0.065  -1.461  1.00  0.00    -0.270 OA
ENDBRANCH   1   7
BRANCH   6  11
HETATM   11  C   LIG     1       4.028  -0.470  -0.390  1.00  0.00     0.234 C 
HETATM   12  O   LIG     1       4.573   0.110  -1.366  1.00  0.00    -0.283 OA
ENDBRANCH   6  11
TORSDOF 2
