REMARK  3 active torsions:
REMARK  status: ('A' for Active; 'I' for Inactive)
REMARK    1  A    between atoms: C_1  and  N_2 
REMARK    2  A    between atoms: N_2  and  N_3 
REMARK    3  A    between atoms: N_3  and  C_4 
ROOT
HETATM    1  N   LIG     1       0.459   0.218   0.382  1.00  0.00    -0.148 NA
ENDROOT
BRANCH   1   2
HETATM    2  C   LIG     1       1.880   0.215   0.164  1.00  0.00     0.103 A 
HETATM    3  C   LIG     1       2.685   1.114   0.883  1.00  0.00     0.021 A 
HETATM    4  C   LIG     1       4.072   1.126   0.700  1.00  0.00     0.002 A 
HETATM    5  C   LIG     1       4.668   0.233  -0.194  1.00  0.00     0.000 A 
HETATM    6  C   LIG     1       3.879  -0.678  -0.899  1.00  0.00     0.002 A 
HETATM    7  C   LIG     1       2.492  -0.694  -0.721  1.00  0.00     0.021 A 
ENDBRANCH   1   2
BRANCH   1   8
HETATM    8  N   LIG     1      -0.459  -0.218  -0.596  1.00  0.00    -0.148 NA
BRANCH   8   9
HETATM    9  C   LIG     1      -1.880  -0.215  -0.379  1.00  0.00     0.103 A 
HETATM   10  C   LIG     1      -2.492   0.694   0.506  1.00  0.00     0.021 A 
HETATM   11  C   LIG     1      -3.879   0.678   0.685  1.00  0.00     0.002 A 
HETATM   12  C   LIG     1      -4.668  -0.233  -0.021  1.00  0.00     0.000 A 
HETATM   13  C   LIG     1      -4.072  -1.126  -0.914  1.00  0.00     0.002 A 
HETATM   14  C   LIG     1      -2.685  -1.114  -1.097  1.00  0.00     0.021 A 
ENDBRANCH   8   9
ENDBRANCH   1   8
TORSDOF 3
