REMARK  2 active torsions:
REMARK  status: ('A' for Active; 'I' for Inactive)
REMARK    1  A    between atoms: C_1  and  N_2 
REMARK    2  A    between atoms: N_2  and  C_3 
ROOT
HETATM    1  N   LIG     1       0.075  -1.059   0.605  1.00  0.00    -0.246 NA
ENDROOT
BRANCH   1   2
HETATM    2  C   LIG     1       1.300  -0.366   0.311  1.00  0.00     0.081 A 
HETATM    3  C   LIG     1       1.351   1.040   0.256  1.00  0.00     0.019 A 
HETATM    4  C   LIG     1       2.560   1.693  -0.003  1.00  0.00     0.002 A 
HETATM    5  C   LIG     1       3.729   0.952  -0.194  1.00  0.00     0.000 A 
HETATM    6  C   LIG     1       3.692  -0.443  -0.118  1.00  0.00     0.002 A 
HETATM    7  C   LIG     1       2.485  -1.099   0.141  1.00  0.00     0.019 A 
ENDBRANCH   1   2
BRANCH   1   8
HETATM    8  C   LIG     1      -1.232  -0.597   0.224  1.00  0.00     0.081 A 
HETATM    9  C   LIG     1      -2.340  -0.932   1.017  1.00  0.00     0.019 A 
HETATM   10  C   LIG     1      -3.624  -0.516   0.650  1.00  0.00     0.002 A 
HETATM   11  C   LIG     1      -3.813   0.223  -0.520  1.00  0.00     0.000 A 
HETATM   12  C   LIG     1      -2.719   0.541  -1.329  1.00  0.00     0.002 A 
HETATM   13  C   LIG     1      -1.434   0.128  -0.966  1.00  0.00     0.019 A 
ENDBRANCH   1   8
TORSDOF 2
