REMARK  3 active torsions:
REMARK  status: ('A' for Active; 'I' for Inactive)
REMARK    1  A    between atoms: C_2  and  C_3 
REMARK    2  A    between atoms: C_3  and  O_4 
REMARK    3  A    between atoms: O_4  and  C_5 
ROOT
HETATM    1  C   LIG     1       0.588  -0.027   0.020  1.00  0.00     0.094 A 
HETATM    2  C   LIG     1       1.038   0.175   1.341  1.00  0.00     0.024 A 
HETATM    3  C   LIG     1       2.401   0.351   1.600  1.00  0.00     0.002 A 
HETATM    4  C   LIG     1       3.323   0.327   0.551  1.00  0.00     0.000 A 
HETATM    5  C   LIG     1       2.884   0.127  -0.760  1.00  0.00     0.002 A 
HETATM    6  C   LIG     1       1.522  -0.049  -1.023  1.00  0.00     0.024 A 
ENDROOT
BRANCH   1   7
HETATM    7  O   LIG     1      -0.767  -0.208  -0.294  1.00  0.00    -0.328 OA
BRANCH   7   8
HETATM    8  C   LIG     1      -1.823  -0.208   0.663  1.00  0.00     0.184 C 
BRANCH   8   9
HETATM    9  C   LIG     1      -3.154  -0.435  -0.040  1.00  0.00     0.215 C 
HETATM   10  O   LIG     1      -3.398   0.608  -0.943  1.00  0.00    -0.218 OA
ENDBRANCH   8   9
ENDBRANCH   7   8
ENDBRANCH   1   7
TORSDOF 3
