REMARK  3 active torsions:
REMARK  status: ('A' for Active; 'I' for Inactive)
REMARK    1  A    between atoms: C_2  and  C_3 
REMARK    2  A    between atoms: C_3  and  C_4 
REMARK    3  A    between atoms: C_4  and  C_5 
ROOT
HETATM    1  C   LIG     1      -0.627  -0.373  -0.400  1.00  0.00    -0.022 A 
HETATM    2  C   LIG     1      -1.268   0.793  -0.852  1.00  0.00    -0.004 A 
HETATM    3  C   LIG     1      -2.420   1.258  -0.209  1.00  0.00    -0.000 A 
HETATM    4  C   LIG     1      -2.942   0.562   0.884  1.00  0.00    -0.000 A 
HETATM    5  C   LIG     1      -2.314  -0.602   1.335  1.00  0.00    -0.000 A 
HETATM    6  C   LIG     1      -1.162  -1.070   0.696  1.00  0.00    -0.004 A 
ENDROOT
BRANCH   1   7
HETATM    7  C   LIG     1       0.616  -0.878  -1.091  1.00  0.00     0.029 C 
BRANCH   7   8
HETATM    8  C   LIG     1       1.865  -0.750  -0.206  1.00  0.00     0.040 C 
BRANCH   8   9
HETATM    9  C   LIG     1       2.237   0.713   0.064  1.00  0.00     0.183 C 
HETATM   10  O   LIG     1       3.404   0.780   0.837  1.00  0.00    -0.221 OA
ENDBRANCH   8   9
ENDBRANCH   7   8
ENDBRANCH   1   7
TORSDOF 3
