REMARK  2 active torsions:
REMARK  status: ('A' for Active; 'I' for Inactive)
REMARK    1  A    between atoms: C_2  and  C_3 
REMARK    2  A    between atoms: C_3  and  C_4 
ROOT
HETATM    1  C   LIG     1       0.806   0.638  -0.289  1.00  0.00     0.072 C 
ENDROOT
BRANCH   1   2
HETATM    2  C   LIG     1      -0.506  -0.035  -0.715  1.00  0.00     0.008 C 
HETATM    3  C   LIG     1      -1.455  -0.252   0.463  1.00  0.00     0.001 C 
ENDBRANCH   1   2
BRANCH   1   4
HETATM    4  C   LIG     1       1.638  -0.252   0.587  1.00  0.00     0.207 C 
HETATM    5  O   LIG     1       2.082  -1.305   0.158  1.00  0.00    -0.288 OA
ENDBRANCH   1   4
TORSDOF 2
