REMARK  4 active torsions:
REMARK  status: ('A' for Active; 'I' for Inactive)
REMARK    1  A    between atoms: C_2  and  C_3 
REMARK    2  A    between atoms: C_3  and  C_4 
REMARK    3  A    between atoms: C_4  and  C_5 
REMARK    4  A    between atoms: C_5  and  C_6 
ROOT
HETATM    1  C   LIG     1      -0.012   0.191  -0.236  1.00  0.00     0.151 C 
HETATM    2  O   LIG     1       0.153   1.298   0.257  1.00  0.00    -0.296 OA
ENDROOT
BRANCH   1   3
HETATM    3  C   LIG     1       1.065  -0.868  -0.149  1.00  0.00     0.065 C 
BRANCH   3   4
HETATM    4  C   LIG     1       2.355  -0.400   0.545  1.00  0.00     0.008 C 
HETATM    5  C   LIG     1       3.184   0.533  -0.337  1.00  0.00     0.001 C 
ENDBRANCH   3   4
ENDBRANCH   1   3
BRANCH   1   6
HETATM    6  C   LIG     1      -1.309  -0.119  -0.938  1.00  0.00     0.065 C 
BRANCH   6   7
HETATM    7  C   LIG     1      -2.437  -0.448   0.050  1.00  0.00     0.008 C 
HETATM    8  C   LIG     1      -2.924   0.779   0.821  1.00  0.00     0.001 C 
ENDBRANCH   6   7
ENDBRANCH   1   6
TORSDOF 4
