REMARK  7 active torsions:
REMARK  status: ('A' for Active; 'I' for Inactive)
REMARK    1  A    between atoms: C_2  and  C_3 
REMARK    2  A    between atoms: C_2  and  O_10 
REMARK    3  A    between atoms: C_3  and  C_4 
REMARK    4  A    between atoms: C_4  and  C_5 
REMARK    5  A    between atoms: C_5  and  O_6 
REMARK    6  A    between atoms: O_6  and  C_7 
REMARK    7  A    between atoms: O_10  and  C_11 
ROOT
HETATM    1  C   LIG     1      -0.584   0.857  -0.140  1.00  0.00     0.106 C 
ENDROOT
BRANCH   1   2
HETATM    2  C   LIG     1      -1.917   0.295  -0.519  1.00  0.00     0.272 C 
HETATM    3  O   LIG     1      -2.406   0.555  -1.653  1.00  0.00    -0.264 OA
BRANCH   2   4
HETATM    4  O   LIG     1      -2.582  -0.557   0.370  1.00  0.00    -0.302 OA
BRANCH   4   5
HETATM    5  C   LIG     1      -3.863  -1.124   0.103  1.00  0.00     0.152 C 
HETATM    6  C   LIG     1      -4.961  -0.081   0.282  1.00  0.00     0.035 C 
ENDBRANCH   4   5
ENDBRANCH   2   4
ENDBRANCH   1   2
BRANCH   1   7
HETATM    7  C   LIG     1       0.535  -0.110  -0.534  1.00  0.00     0.106 C 
BRANCH   7   8
HETATM    8  C   LIG     1       1.872   0.428  -0.132  1.00  0.00     0.272 C 
HETATM    9  O   LIG     1       2.305   1.489  -0.659  1.00  0.00    -0.264 OA
BRANCH   8  10
HETATM   10  O   LIG     1       2.629  -0.255   0.827  1.00  0.00    -0.302 OA
BRANCH  10  11
HETATM   11  C   LIG     1       3.932   0.157   1.238  1.00  0.00     0.152 C 
HETATM   12  C   LIG     1       4.968  -0.198   0.178  1.00  0.00     0.035 C 
ENDBRANCH  10  11
ENDBRANCH   8  10
ENDBRANCH   7   8
ENDBRANCH   1   7
TORSDOF 7
