REMARK  8 active torsions:
REMARK  status: ('A' for Active; 'I' for Inactive)
REMARK    1  A    between atoms: C_2  and  C_4 
REMARK    2  A    between atoms: C_4  and  C_5 
REMARK    3  A    between atoms: C_5  and  C_6 
REMARK    4  A    between atoms: C_6  and  C_7 
REMARK    5  A    between atoms: C_7  and  C_8 
REMARK    6  A    between atoms: C_8  and  C_9 
REMARK    7  A    between atoms: C_9  and  C_10 
REMARK    8  A    between atoms: C_10  and  C_11 
ROOT
HETATM    1  C   LIG     1      -0.131  -1.029   0.146  1.00  0.00     0.000 C 
ENDROOT
BRANCH   1   2
HETATM    2  C   LIG     1       1.126  -1.447   0.939  1.00  0.00     0.001 C 
BRANCH   2   3
HETATM    3  C   LIG     1       2.440  -0.937   0.322  1.00  0.00     0.011 C 
BRANCH   3   4
HETATM    4  C   LIG     1       2.577   0.588   0.385  1.00  0.00     0.098 C 
BRANCH   4   5
HETATM    5  C   LIG     1       3.936   1.010  -0.076  1.00  0.00     0.185 C 
HETATM    6  O   LIG     1       4.147   1.233  -1.298  1.00  0.00    -0.647 OA
HETATM    7  O   LIG     1       4.978   1.113   0.840  1.00  0.00    -0.647 OA
ENDBRANCH   4   5
ENDBRANCH   3   4
ENDBRANCH   2   3
ENDBRANCH   1   2
BRANCH   1   8
HETATM    8  C   LIG     1      -0.879   0.136   0.817  1.00  0.00     0.001 C 
BRANCH   8   9
HETATM    9  C   LIG     1      -2.003   0.704  -0.064  1.00  0.00     0.011 C 
BRANCH   9  10
HETATM   10  C   LIG     1      -3.174  -0.273  -0.230  1.00  0.00     0.098 C 
BRANCH  10  11
HETATM   11  C   LIG     1      -4.300   0.376  -0.974  1.00  0.00     0.185 C 
HETATM   12  O   LIG     1      -4.114   0.794  -2.289  1.00  0.00    -0.647 OA
HETATM   13  O   LIG     1      -5.418   0.537  -0.416  1.00  0.00    -0.647 OA
ENDBRANCH  10  11
ENDBRANCH   9  10
ENDBRANCH   8   9
ENDBRANCH   1   8
TORSDOF 8
