REMARK  0 active torsions:
REMARK  status: ('A' for Active; 'I' for Inactive)
ROOT
HETATM    1  O   LIG     1       2.791   0.104   0.178  1.00  0.00    -0.190 OA
HETATM    2  C   LIG     1       1.402   0.102   0.072  1.00  0.00     0.131 A 
HETATM    3  C   LIG     1       0.661  -1.041   0.404  1.00  0.00     0.029 A 
HETATM    4  C   LIG     1      -0.733  -1.030   0.294  1.00  0.00     0.029 A 
HETATM    5  C   LIG     1      -1.394   0.125  -0.149  1.00  0.00     0.131 A 
HETATM    6  O   LIG     1      -2.782   0.149  -0.264  1.00  0.00    -0.190 OA
HETATM    7  C   LIG     1      -0.654   1.265  -0.480  1.00  0.00     0.029 A 
HETATM    8  C   LIG     1       0.741   1.254  -0.369  1.00  0.00     0.029 A 
ENDROOT
TORSDOF 0
