REMARK  2 active torsions:
REMARK  status: ('A' for Active; 'I' for Inactive)
REMARK    1  A    between atoms: C_2  and  C_3 
REMARK    2  A    between atoms: C_6  and  O_7 
ROOT
HETATM    1  C   LIG     1      -1.854  -0.328  -0.201  1.00  0.00     0.042 A 
HETATM    2  C   LIG     1      -1.203   0.774   0.381  1.00  0.00     0.005 A 
HETATM    3  C   LIG     1       0.193   0.825   0.430  1.00  0.00     0.024 A 
HETATM    4  C   LIG     1       0.962  -0.228  -0.102  1.00  0.00     0.094 A 
HETATM    5  C   LIG     1       0.310  -1.323  -0.680  1.00  0.00     0.024 A 
HETATM    6  C   LIG     1      -1.086  -1.375  -0.730  1.00  0.00     0.005 A 
ENDROOT
BRANCH   1   7
HETATM    7  C   LIG     1      -3.325  -0.399  -0.262  1.00  0.00     0.234 C 
HETATM    8  O   LIG     1      -4.042   0.526   0.205  1.00  0.00    -0.283 OA
ENDBRANCH   1   7
BRANCH   4   9
HETATM    9  O   LIG     1       2.364  -0.224  -0.076  1.00  0.00    -0.328 OA
HETATM   10  C   LIG     1       3.155   0.822   0.479  1.00  0.00     0.181 C 
ENDBRANCH   4   9
TORSDOF 2
