REMARK  0 active torsions:
REMARK  status: ('A' for Active; 'I' for Inactive)
ROOT
HETATM    1  N   LIG     1       2.601   0.161  -0.031  1.00  0.00    -0.101 NA
HETATM    2  C   LIG     1       1.176   0.044  -0.022  1.00  0.00     0.070 A 
HETATM    3  C   LIG     1       0.379   1.147   0.316  1.00  0.00     0.016 A 
HETATM    4  C   LIG     1      -1.015   1.032   0.324  1.00  0.00     0.029 A 
HETATM    5  C   LIG     1      -1.622  -0.188  -0.006  1.00  0.00     0.131 A 
HETATM    6  O   LIG     1      -3.009  -0.316  -0.001  1.00  0.00    -0.190 OA
HETATM    7  C   LIG     1      -0.828  -1.290  -0.343  1.00  0.00     0.029 A 
HETATM    8  C   LIG     1       0.566  -1.176  -0.352  1.00  0.00     0.016 A 
ENDROOT
TORSDOF 0
