REMARK  2 active torsions:
REMARK  status: ('A' for Active; 'I' for Inactive)
REMARK    1  A    between atoms: C_2  and  C_4 
REMARK    2  A    between atoms: C_4  and  C_5 
ROOT
HETATM    1  C   LIG     1      -1.792   0.215   1.005  1.00  0.00     0.000 C 
HETATM    2  C   LIG     1      -0.668   0.344  -0.032  1.00  0.00     0.003 C 
HETATM    3  C   LIG     1      -1.086  -0.345  -1.340  1.00  0.00     0.000 C 
ENDROOT
BRANCH   2   4
HETATM    4  C   LIG     1       0.644  -0.243   0.535  1.00  0.00     0.036 C 
BRANCH   4   5
HETATM    5  C   LIG     1       1.866   0.075  -0.338  1.00  0.00     0.182 C 
HETATM    6  O   LIG     1       3.037  -0.366   0.293  1.00  0.00    -0.221 OA
ENDBRANCH   4   5
ENDBRANCH   2   4
TORSDOF 2
