REMARK  9 active torsions:
REMARK  status: ('A' for Active; 'I' for Inactive)
REMARK    1  A    between atoms: C_2  and  C_6 
REMARK    2  A    between atoms: C_2  and  O_3 
REMARK    3  A    between atoms: O_3  and  C_4 
REMARK    4  A    between atoms: C_6  and  C_7 
REMARK    5  A    between atoms: C_7  and  C_8 
REMARK    6  A    between atoms: C_8  and  C_9 
REMARK    7  A    between atoms: C_9  and  C_10 
REMARK    8  A    between atoms: C_10  and  C_11 
REMARK    9  A    between atoms: C_11  and  C_12 
ROOT
HETATM    1  C   LIG     1       0.975  -0.780  -0.889  1.00  0.00     0.010 C 
ENDROOT
BRANCH   1   2
HETATM    2  C   LIG     1       1.745  -0.155   0.281  1.00  0.00     0.096 C 
BRANCH   2   3
HETATM    3  C   LIG     1       3.218  -0.336   0.091  1.00  0.00     0.272 C 
HETATM    4  O   LIG     1       3.785  -1.368   0.544  1.00  0.00    -0.264 OA
BRANCH   3   5
HETATM    5  O   LIG     1       3.939   0.618  -0.635  1.00  0.00    -0.302 OA
BRANCH   5   6
HETATM    6  C   LIG     1       5.347   0.540  -0.851  1.00  0.00     0.152 C 
HETATM    7  C   LIG     1       6.107   0.926   0.413  1.00  0.00     0.035 C 
ENDBRANCH   5   6
ENDBRANCH   3   5
ENDBRANCH   2   3
ENDBRANCH   1   2
BRANCH   1   8
HETATM    8  C   LIG     1      -0.535  -0.506  -0.815  1.00  0.00     0.001 C 
BRANCH   8   9
HETATM    9  C   LIG     1      -1.216  -1.259   0.341  1.00  0.00     0.000 C 
BRANCH   9  10
HETATM   10  C   LIG     1      -2.750  -1.206   0.259  1.00  0.00     0.000 C 
BRANCH  10  11
HETATM   11  C   LIG     1      -3.308   0.198   0.536  1.00  0.00     0.000 C 
BRANCH  11  12
HETATM   12  C   LIG     1      -4.840   0.182   0.574  1.00  0.00     0.000 C 
HETATM   13  C   LIG     1      -5.401   1.576   0.839  1.00  0.00     0.000 C 
ENDBRANCH  11  12
ENDBRANCH  10  11
ENDBRANCH   9  10
ENDBRANCH   8   9
ENDBRANCH   1   8
TORSDOF 9
