REMARK  4 active torsions:
REMARK  status: ('A' for Active; 'I' for Inactive)
REMARK    1  A    between atoms: C_2  and  O_3 
REMARK    2  A    between atoms: O_3  and  C_4 
REMARK    3  A    between atoms: C_4  and  C_5 
REMARK    4  A    between atoms: C_5  and  C_6 
ROOT
HETATM    1  C   LIG     1       0.433  -0.066   0.029  1.00  0.00     0.152 C 
ENDROOT
BRANCH   1   2
HETATM    2  O   LIG     1       1.723   0.179   0.579  1.00  0.00    -0.302 OA
BRANCH   2   3
HETATM    3  C   LIG     1       2.904  -0.098  -0.117  1.00  0.00     0.272 C 
HETATM    4  C   LIG     1       4.221   0.185   0.523  1.00  0.00     0.106 C 
HETATM    5  O   LIG     1       2.868  -0.584  -1.280  1.00  0.00    -0.264 OA
ENDBRANCH   2   3
ENDBRANCH   1   2
BRANCH   1   6
HETATM    6  C   LIG     1      -0.636   0.346   1.048  1.00  0.00     0.033 C 
BRANCH   6   7
HETATM    7  C   LIG     1      -2.094   0.133   0.578  1.00  0.00     0.003 C 
HETATM    8  C   LIG     1      -2.418  -1.346   0.327  1.00  0.00     0.000 C 
HETATM    9  C   LIG     1      -2.446   0.986  -0.647  1.00  0.00     0.000 C 
ENDBRANCH   6   7
ENDBRANCH   1   6
TORSDOF 4
