REMARK  6 active torsions:
REMARK  status: ('A' for Active; 'I' for Inactive)
REMARK    1  A    between atoms: C_2  and  C_3 
REMARK    2  A    between atoms: C_3  and  C_4 
REMARK    3  A    between atoms: C_4  and  C_5 
REMARK    4  A    between atoms: C_5  and  C_6 
REMARK    5  A    between atoms: C_6  and  O_7 
REMARK    6  A    between atoms: O_7  and  C_8 
ROOT
HETATM    1  C   LIG     1       0.098  -0.750  -0.254  1.00  0.00     0.096 C 
ENDROOT
BRANCH   1   2
HETATM    2  C   LIG     1      -0.912  -0.536   0.881  1.00  0.00     0.010 C 
BRANCH   2   3
HETATM    3  C   LIG     1      -2.244  -1.270   0.644  1.00  0.00     0.001 C 
BRANCH   3   4
HETATM    4  C   LIG     1      -3.034  -0.798  -0.589  1.00  0.00     0.000 C 
HETATM    5  C   LIG     1      -3.453   0.670  -0.506  1.00  0.00     0.000 C 
ENDBRANCH   3   4
ENDBRANCH   2   3
ENDBRANCH   1   2
BRANCH   1   6
HETATM    6  C   LIG     1       1.424  -0.146   0.091  1.00  0.00     0.272 C 
HETATM    7  O   LIG     1       2.094  -0.613   1.053  1.00  0.00    -0.264 OA
BRANCH   6   8
HETATM    8  O   LIG     1       1.907   0.929  -0.662  1.00  0.00    -0.302 OA
BRANCH   8   9
HETATM    9  C   LIG     1       3.178   1.538  -0.437  1.00  0.00     0.152 C 
HETATM   10  C   LIG     1       4.299   0.661  -0.985  1.00  0.00     0.035 C 
ENDBRANCH   8   9
ENDBRANCH   6   8
ENDBRANCH   1   6
TORSDOF 6
