REMARK  0 active torsions:
REMARK  status: ('A' for Active; 'I' for Inactive)
ROOT
HETATM    1  O   LIG     1       1.914  -1.453  -0.772  1.00  0.00    -0.270 OA
HETATM    2  C   LIG     1       1.008  -0.664  -0.396  1.00  0.00     0.259 A 
HETATM    3  C   LIG     1      -0.362  -1.099   0.006  1.00  0.00     0.100 A 
HETATM    4  C   LIG     1      -1.073   0.220   0.372  1.00  0.00     0.100 A 
HETATM    5  N   LIG     1       1.198   0.734  -0.316  1.00  0.00    -0.177 NA
HETATM    6  C   LIG     1      -0.030   1.262   0.138  1.00  0.00     0.259 A 
HETATM    7  O   LIG     1      -0.213   2.494   0.324  1.00  0.00    -0.270 OA
ENDROOT
TORSDOF 0
