REMARK  5 active torsions:
REMARK  status: ('A' for Active; 'I' for Inactive)
REMARK    1  A    between atoms: C_2  and  C_4 
REMARK    2  A    between atoms: C_4  and  C_5 
REMARK    3  A    between atoms: C_5  and  C_6 
REMARK    4  A    between atoms: C_6  and  C_7 
REMARK    5  A    between atoms: C_7  and  C_8 
ROOT
HETATM    1  C   LIG     1      -0.462  -1.606   0.455  1.00  0.00     0.003 C 
ENDROOT
BRANCH   1   2
HETATM    2  C   LIG     1      -1.614  -0.799  -0.175  1.00  0.00     0.033 C 
BRANCH   2   3
HETATM    3  C   LIG     1      -2.099   0.379   0.698  1.00  0.00     0.152 C 
HETATM    4  C   LIG     1      -3.290   1.090   0.047  1.00  0.00     0.036 C 
HETATM    5  O   LIG     1      -2.438  -0.051   1.993  1.00  0.00    -0.224 OA
ENDBRANCH   2   3
ENDBRANCH   1   2
BRANCH   1   6
HETATM    6  C   LIG     1       0.816  -0.799   0.747  1.00  0.00     0.000 C 
BRANCH   6   7
HETATM    7  C   LIG     1       1.443  -0.193  -0.517  1.00  0.00     0.000 C 
BRANCH   7   8
HETATM    8  C   LIG     1       2.802   0.444  -0.204  1.00  0.00     0.000 C 
HETATM    9  C   LIG     1       3.422   1.064  -1.453  1.00  0.00     0.000 C 
ENDBRANCH   7   8
ENDBRANCH   6   7
ENDBRANCH   1   6
TORSDOF 5
