REMARK  4 active torsions:
REMARK  status: ('A' for Active; 'I' for Inactive)
REMARK    1  A    between atoms: C_2  and  O_3 
REMARK    2  A    between atoms: O_3  and  C_4 
REMARK    3  A    between atoms: C_4  and  C_5 
REMARK    4  A    between atoms: C_5  and  C_6 
ROOT
HETATM    1  O   LIG     1       1.165   0.310  -0.186  1.00  0.00    -0.302 OA
ENDROOT
BRANCH   1   2
HETATM    2  C   LIG     1       2.472  -0.018  -0.556  1.00  0.00     0.272 C 
HETATM    3  C   LIG     1       3.478  -0.316   0.503  1.00  0.00     0.106 C 
HETATM    4  O   LIG     1       2.805  -0.065  -1.772  1.00  0.00    -0.264 OA
ENDBRANCH   1   2
BRANCH   1   5
HETATM    5  C   LIG     1       0.147   0.604  -1.139  1.00  0.00     0.152 C 
BRANCH   5   6
HETATM    6  C   LIG     1      -1.166   0.921  -0.424  1.00  0.00     0.033 C 
BRANCH   6   7
HETATM    7  C   LIG     1      -1.704  -0.297   0.338  1.00  0.00     0.003 C 
HETATM    8  C   LIG     1      -3.026   0.026   1.028  1.00  0.00     0.000 C 
ENDBRANCH   6   7
ENDBRANCH   5   6
ENDBRANCH   1   5
TORSDOF 4
