REMARK  1 active torsions:
REMARK  status: ('A' for Active; 'I' for Inactive)
REMARK    1  A    between atoms: C_5  and  C_6 
ROOT
HETATM    1  O   LIG     1       2.977  -0.252   0.574  1.00  0.00    -0.190 OA
HETATM    2  C   LIG     1       1.614  -0.156   0.306  1.00  0.00     0.131 A 
HETATM    3  C   LIG     1       0.911  -1.290  -0.113  1.00  0.00     0.028 A 
HETATM    4  C   LIG     1      -0.458  -1.209  -0.386  1.00  0.00     0.005 A 
HETATM    5  C   LIG     1      -1.139   0.010  -0.240  1.00  0.00     0.042 A 
HETATM    6  C   LIG     1      -0.429   1.148   0.182  1.00  0.00     0.005 A 
HETATM    7  C   LIG     1       0.940   1.064   0.454  1.00  0.00     0.028 A 
ENDROOT
BRANCH   5   8
HETATM    8  C   LIG     1      -2.583   0.077  -0.532  1.00  0.00     0.234 C 
HETATM    9  O   LIG     1      -3.222   1.156  -0.411  1.00  0.00    -0.283 OA
ENDBRANCH   5   8
TORSDOF 1
