REMARK  0 active torsions:
REMARK  status: ('A' for Active; 'I' for Inactive)
ROOT
HETATM    1  C   LIG     1       1.260   0.089   0.295  1.00  0.00     0.290 C 
HETATM    2  C   LIG     1       0.356  -1.100   0.048  1.00  0.00     0.040 C 
HETATM    3  C   LIG     1      -1.034  -0.530   0.169  1.00  0.00     0.040 C 
HETATM    4  C   LIG     1      -0.881   0.936  -0.205  1.00  0.00     0.290 C 
HETATM    5  N   LIG     1       0.539   1.292  -0.122  1.00  0.00     0.339 N 
ENDROOT
TORSDOF 0
