REMARK  6 active torsions:
REMARK  status: ('A' for Active; 'I' for Inactive)
REMARK    1  A    between atoms: C_2  and  C_3 
REMARK    2  A    between atoms: C_3  and  C_4 
REMARK    3  A    between atoms: C_4  and  C_5 
REMARK    4  A    between atoms: C_5  and  C_6 
REMARK    5  A    between atoms: C_6  and  C_7 
REMARK    6  A    between atoms: C_7  and  C_8 
ROOT
HETATM    1  C   LIG     1      -0.327   0.603  -0.047  1.00  0.00     0.000 C 
ENDROOT
BRANCH   1   2
HETATM    2  C   LIG     1      -1.715   0.009   0.218  1.00  0.00     0.004 C 
BRANCH   2   3
HETATM    3  C   LIG     1      -2.813   1.055  -0.013  1.00  0.00     0.026 C 
BRANCH   3   4
HETATM    4  C   LIG     1      -4.175   0.491   0.287  1.00  0.00    -0.026 C 
HETATM    5  C   LIG     1      -4.751  -0.416  -0.508  1.00  0.00    -0.004 C 
ENDBRANCH   3   4
ENDBRANCH   2   3
ENDBRANCH   1   2
BRANCH   1   6
HETATM    6  C   LIG     1       0.772  -0.442   0.181  1.00  0.00     0.000 C 
BRANCH   6   7
HETATM    7  C   LIG     1       2.161   0.152  -0.084  1.00  0.00     0.000 C 
BRANCH   7   8
HETATM    8  C   LIG     1       3.258  -0.894   0.144  1.00  0.00     0.000 C 
HETATM    9  C   LIG     1       4.642  -0.307  -0.118  1.00  0.00     0.000 C 
ENDBRANCH   7   8
ENDBRANCH   6   7
ENDBRANCH   1   6
TORSDOF 6
