REMARK  2 active torsions:
REMARK  status: ('A' for Active; 'I' for Inactive)
REMARK    1  A    between atoms: C_22  and  C_24 
REMARK    2  A    between atoms: C_24  and  C_25 
ROOT
HETATM    1  O   LIG     1       5.571  -0.689  -2.681  1.00  0.00    -0.287 OA
HETATM    2  C   LIG     1       4.624  -0.286  -1.954  1.00  0.00     0.195 C 
HETATM    3  C   LIG     1       3.728   0.770  -2.427  1.00  0.00     0.038 C 
HETATM    4  C   LIG     1       2.781   1.263  -1.626  1.00  0.00    -0.017 C 
HETATM    5  C   LIG     1       2.691   0.902  -0.143  1.00  0.00     0.064 C 
HETATM    6  C   LIG     1       3.430   2.028   0.615  1.00  0.00     0.011 C 
HETATM    7  C   LIG     1       3.428  -0.426   0.164  1.00  0.00    -0.035 C 
HETATM    8  C   LIG     1       2.927  -1.281   1.315  1.00  0.00     0.023 C 
HETATM    9  C   LIG     1       1.441  -1.678   1.114  1.00  0.00     0.007 C 
HETATM   10  C   LIG     1       0.708  -0.712   0.150  1.00  0.00     0.034 C 
HETATM   11  C   LIG     1       1.190   0.765   0.369  1.00  0.00     0.168 C 
HETATM   12  F   LIG     1       1.232   1.022   1.731  1.00  0.00    -0.237 F 
HETATM   13  C   LIG     1       0.138   1.771  -0.202  1.00  0.00     0.182 C 
HETATM   14  O   LIG     1      -0.068   1.557  -1.576  1.00  0.00    -0.221 OA
HETATM   15  C   LIG     1      -1.231   1.642   0.549  1.00  0.00     0.039 C 
HETATM   16  C   LIG     1      -1.657   0.161   0.907  1.00  0.00     0.037 C 
HETATM   17  C   LIG     1      -1.459  -0.074   2.445  1.00  0.00     0.003 C 
HETATM   18  C   LIG     1      -0.840  -0.834   0.072  1.00  0.00     0.008 C 
HETATM   19  C   LIG     1      -1.523  -2.185   0.234  1.00  0.00     0.036 C 
HETATM   20  C   LIG     1      -3.026  -1.843   0.404  1.00  0.00     0.187 C 
HETATM   21  O   LIG     1      -3.529  -2.478   1.554  1.00  0.00    -0.220 OA
HETATM   22  C   LIG     1      -3.128  -0.276   0.536  1.00  0.00     0.207 C 
HETATM   23  O   LIG     1      -4.010   0.069   1.585  1.00  0.00    -0.216 OA
HETATM   24  C   LIG     1       4.369  -0.917  -0.658  1.00  0.00     0.034 C 
ENDROOT
BRANCH  22  25
HETATM   25  C   LIG     1      -3.655   0.386  -0.756  1.00  0.00     0.213 C 
HETATM   26  O   LIG     1      -4.340   1.394  -0.649  1.00  0.00    -0.291 OA
BRANCH  25  27
HETATM   27  C   LIG     1      -3.392  -0.117  -2.160  1.00  0.00     0.249 C 
HETATM   28  O   LIG     1      -4.606  -0.382  -2.809  1.00  0.00    -0.212 OA
ENDBRANCH  25  27
ENDBRANCH  22  25
TORSDOF 2
