REMARK  5 active torsions:
REMARK  status: ('A' for Active; 'I' for Inactive)
REMARK    1  A    between atoms: C_2  and  C_3 
REMARK    2  A    between atoms: C_3  and  C_4 
REMARK    3  A    between atoms: C_4  and  C_5 
REMARK    4  A    between atoms: C_5  and  C_6 
REMARK    5  A    between atoms: C_6  and  C_7 
ROOT
HETATM    1  C   LIG     1       0.731   0.161   0.388  1.00  0.00     0.012 C 
ENDROOT
BRANCH   1   2
HETATM    2  C   LIG     1       1.798  -0.478  -0.505  1.00  0.00     0.098 C 
BRANCH   2   3
HETATM    3  C   LIG     1       3.169  -0.071  -0.056  1.00  0.00     0.185 C 
HETATM    4  O   LIG     1       3.716   1.142  -0.464  1.00  0.00    -0.647 OA
HETATM    5  O   LIG     1       3.819  -0.812   0.727  1.00  0.00    -0.647 OA
ENDBRANCH   2   3
ENDBRANCH   1   2
BRANCH   1   6
HETATM    6  C   LIG     1      -0.678  -0.245  -0.062  1.00  0.00     0.012 C 
BRANCH   6   7
HETATM    7  C   LIG     1      -1.746   0.396   0.830  1.00  0.00     0.098 C 
BRANCH   7   8
HETATM    8  C   LIG     1      -3.123  -0.017   0.397  1.00  0.00     0.185 C 
HETATM    9  O   LIG     1      -3.936  -0.777   1.234  1.00  0.00    -0.647 OA
HETATM   10  O   LIG     1      -3.556   0.332  -0.733  1.00  0.00    -0.647 OA
ENDBRANCH   7   8
ENDBRANCH   6   7
ENDBRANCH   1   6
TORSDOF 5
