REMARK  6 active torsions:
REMARK  status: ('A' for Active; 'I' for Inactive)
REMARK    1  A    between atoms: C_2  and  C_3 
REMARK    2  A    between atoms: C_3  and  C_4 
REMARK    3  A    between atoms: C_4  and  C_5 
REMARK    4  A    between atoms: C_5  and  C_6 
REMARK    5  A    between atoms: C_6  and  C_7 
REMARK    6  A    between atoms: C_7  and  C_8 
ROOT
HETATM    1  C   LIG     1       0.850  -0.453   0.112  1.00  0.00     0.001 C 
ENDROOT
BRANCH   1   2
HETATM    2  C   LIG     1      -0.582  -0.151   0.569  1.00  0.00     0.000 C 
BRANCH   2   3
HETATM    3  C   LIG     1      -1.601  -0.562  -0.505  1.00  0.00     0.000 C 
BRANCH   3   4
HETATM    4  C   LIG     1      -3.054  -0.389  -0.037  1.00  0.00     0.000 C 
HETATM    5  C   LIG     1      -3.466   1.079   0.081  1.00  0.00     0.000 C 
ENDBRANCH   3   4
ENDBRANCH   2   3
ENDBRANCH   1   2
BRANCH   1   6
HETATM    6  C   LIG     1       1.869  -0.034   1.181  1.00  0.00     0.008 C 
BRANCH   6   7
HETATM    7  C   LIG     1       3.312  -0.352   0.763  1.00  0.00     0.072 C 
BRANCH   7   8
HETATM    8  C   LIG     1       3.801   0.552  -0.333  1.00  0.00     0.207 C 
HETATM    9  O   LIG     1       4.926   0.407  -0.783  1.00  0.00    -0.288 OA
ENDBRANCH   7   8
ENDBRANCH   6   7
ENDBRANCH   1   6
TORSDOF 6
