REMARK  6 active torsions:
REMARK  status: ('A' for Active; 'I' for Inactive)
REMARK    1  A    between atoms: C_2  and  C_3 
REMARK    2  A    between atoms: C_3  and  C_4 
REMARK    3  A    between atoms: C_4  and  C_5 
REMARK    4  A    between atoms: C_5  and  C_6 
REMARK    5  A    between atoms: C_6  and  C_7 
REMARK    6  A    between atoms: C_7  and  C_8 
ROOT
HETATM    1  C   LIG     1       0.725   0.814  -0.163  1.00  0.00     0.001 C 
ENDROOT
BRANCH   1   2
HETATM    2  C   LIG     1      -0.584   0.389  -0.849  1.00  0.00     0.000 C 
BRANCH   2   3
HETATM    3  C   LIG     1      -1.696   0.048   0.154  1.00  0.00     0.000 C 
BRANCH   3   4
HETATM    4  C   LIG     1      -3.018  -0.236  -0.570  1.00  0.00     0.000 C 
HETATM    5  C   LIG     1      -4.125  -0.586   0.420  1.00  0.00     0.000 C 
ENDBRANCH   3   4
ENDBRANCH   2   3
ENDBRANCH   1   2
BRANCH   1   6
HETATM    6  C   LIG     1       1.463  -0.370   0.486  1.00  0.00     0.011 C 
BRANCH   6   7
HETATM    7  C   LIG     1       2.782   0.050   1.153  1.00  0.00     0.098 C 
BRANCH   7   8
HETATM    8  C   LIG     1       3.879   0.278   0.156  1.00  0.00     0.185 C 
HETATM    9  O   LIG     1       4.919  -0.641   0.051  1.00  0.00    -0.647 OA
HETATM   10  O   LIG     1       3.878   1.308  -0.569  1.00  0.00    -0.647 OA
ENDBRANCH   7   8
ENDBRANCH   6   7
ENDBRANCH   1   6
TORSDOF 6
