REMARK  7 active torsions:
REMARK  status: ('A' for Active; 'I' for Inactive)
REMARK    1  A    between atoms: C_2  and  C_3 
REMARK    2  A    between atoms: C_3  and  C_4 
REMARK    3  A    between atoms: C_4  and  C_5 
REMARK    4  A    between atoms: C_5  and  C_6 
REMARK    5  A    between atoms: C_6  and  C_7 
REMARK    6  A    between atoms: C_7  and  C_8 
REMARK    7  A    between atoms: C_8  and  C_9 
ROOT
HETATM    1  C   LIG     1       0.064   0.864  -0.509  1.00  0.00     0.000 C 
ENDROOT
BRANCH   1   2
HETATM    2  C   LIG     1      -1.321   0.703   0.139  1.00  0.00     0.000 C 
BRANCH   2   3
HETATM    3  C   LIG     1      -1.921  -0.695  -0.089  1.00  0.00     0.000 C 
BRANCH   3   4
HETATM    4  C   LIG     1      -3.309  -0.851   0.551  1.00  0.00     0.000 C 
HETATM    5  C   LIG     1      -4.398  -0.085  -0.200  1.00  0.00     0.000 C 
ENDBRANCH   3   4
ENDBRANCH   2   3
ENDBRANCH   1   2
BRANCH   1   6
HETATM    6  C   LIG     1       1.166   0.105   0.247  1.00  0.00     0.001 C 
BRANCH   6   7
HETATM    7  C   LIG     1       2.546   0.403  -0.352  1.00  0.00     0.008 C 
BRANCH   7   8
HETATM    8  C   LIG     1       3.645  -0.362   0.392  1.00  0.00     0.072 C 
BRANCH   8   9
HETATM    9  C   LIG     1       4.987  -0.064  -0.206  1.00  0.00     0.207 C 
HETATM   10  O   LIG     1       5.863   0.456   0.467  1.00  0.00    -0.288 OA
ENDBRANCH   8   9
ENDBRANCH   7   8
ENDBRANCH   6   7
ENDBRANCH   1   6
TORSDOF 7
