REMARK  0 active torsions:
REMARK  status: ('A' for Active; 'I' for Inactive)
ROOT
HETATM    1 CL   LIG     1      -0.357   1.631  -0.560  1.00  0.00    -0.090 Cl
HETATM    2  C   LIG     1      -0.004   0.041   0.152  1.00  0.00     0.192 C 
HETATM    3 BR   LIG     1      -1.372  -1.220  -0.376  1.00  0.00    -0.051 Br
HETATM    4 BR   LIG     1       1.718  -0.578  -0.474  1.00  0.00    -0.051 Br
ENDROOT
TORSDOF 0
