REMARK  2 active torsions:
REMARK  status: ('A' for Active; 'I' for Inactive)
REMARK    1  A    between atoms: C_4  and  C_5 
REMARK    2  A    between atoms: C_10  and  C_12 
ROOT
HETATM    1  C   LIG     1       0.725   1.773   0.799  1.00  0.00     0.001 C 
HETATM    2  C   LIG     1       0.382   0.274   0.544  1.00  0.00     0.019 C 
HETATM    3  C   LIG     1       0.641  -0.469   1.884  1.00  0.00     0.001 C 
HETATM    4  C   LIG     1       1.292  -0.227  -0.640  1.00  0.00     0.088 C 
HETATM    5  C   LIG     1       0.389  -0.346  -1.877  1.00  0.00     0.011 C 
HETATM    6  C   LIG     1      -0.932   0.312  -1.509  1.00  0.00     0.011 C 
HETATM    7  C   LIG     1      -1.097   0.112   0.009  1.00  0.00     0.079 C 
HETATM    8  C   LIG     1      -1.684  -1.304   0.253  1.00  0.00     0.011 C 
ENDROOT
BRANCH   7   9
HETATM    9  C   LIG     1      -2.087   1.101   0.628  1.00  0.00     0.184 C 
HETATM   10  O   LIG     1      -2.930   1.906  -0.140  1.00  0.00    -0.647 OA
HETATM   11  O   LIG     1      -2.192   1.162   1.882  1.00  0.00    -0.647 OA
ENDBRANCH   7   9
BRANCH   4  12
HETATM   12  C   LIG     1       2.064  -1.509  -0.390  1.00  0.00     0.185 C 
HETATM   13  O   LIG     1       3.452  -1.485  -0.272  1.00  0.00    -0.647 OA
HETATM   14  O   LIG     1       1.465  -2.612  -0.293  1.00  0.00    -0.647 OA
ENDBRANCH   4  12
TORSDOF 2
