REMARK  2 active torsions:
REMARK  status: ('A' for Active; 'I' for Inactive)
REMARK    1  A    between atoms: C_6  and  C_13 
REMARK    2  A    between atoms: C_6  and  C_7 
ROOT
HETATM    1  O   LIG     1      -1.344  -2.023  -1.689  1.00  0.00    -0.270 OA
HETATM    2  C   LIG     1      -1.367  -1.370  -0.610  1.00  0.00     0.265 C 
HETATM    3  N   LIG     1      -1.917  -1.984   0.563  1.00  0.00    -0.210 NA
HETATM    4  C   LIG     1      -1.935  -1.263   1.830  1.00  0.00     0.256 C 
HETATM    5  N   LIG     1      -2.241   0.141   1.585  1.00  0.00    -0.210 NA
HETATM    6  C   LIG     1      -0.788   0.043  -0.527  1.00  0.00     0.164 C 
HETATM    7  C   LIG     1      -1.712   0.804   0.428  1.00  0.00     0.265 C 
HETATM    8  O   LIG     1      -2.022   2.008   0.222  1.00  0.00    -0.270 OA
ENDROOT
BRANCH   6   9
HETATM    9  C   LIG     1      -0.782   0.704  -1.946  1.00  0.00     0.022 C 
HETATM   10  C   LIG     1       0.035   2.001  -2.051  1.00  0.00     0.001 C 
ENDBRANCH   6   9
BRANCH   6  11
HETATM   11  C   LIG     1       0.648  -0.058   0.015  1.00  0.00    -0.006 A 
HETATM   12  C   LIG     1       1.107   0.741   1.089  1.00  0.00    -0.003 A 
HETATM   13  C   LIG     1       2.428   0.645   1.536  1.00  0.00    -0.000 A 
HETATM   14  C   LIG     1       3.318  -0.232   0.916  1.00  0.00    -0.000 A 
HETATM   15  C   LIG     1       2.892  -1.012  -0.159  1.00  0.00    -0.000 A 
HETATM   16  C   LIG     1       1.573  -0.922  -0.612  1.00  0.00    -0.003 A 
ENDBRANCH   6  11
TORSDOF 2
