REMARK  3 active torsions:
REMARK  status: ('A' for Active; 'I' for Inactive)
REMARK    1  A    between atoms: C_3  and  O_4 
REMARK    2  A    between atoms: C_7  and  O_8 
REMARK    3  A    between atoms: C_14  and  O_15 
ROOT
HETATM    1 CL   LIG     1       1.180  -0.819  -3.664  1.00  0.00    -0.078 Cl
HETATM    2  C   LIG     1       1.508  -0.271  -2.028  1.00  0.00     0.102 A 
HETATM    3  C   LIG     1       2.787   0.192  -1.654  1.00  0.00     0.108 A 
HETATM    4  C   LIG     1       3.011   0.626  -0.320  1.00  0.00     0.050 A 
HETATM    5  C   LIG     1       1.967   0.599   0.634  1.00  0.00     0.101 A 
HETATM    6  C   LIG     1       0.723   0.132   0.212  1.00  0.00     0.083 A 
HETATM    7  C   LIG     1       0.498  -0.287  -1.069  1.00  0.00     0.112 A 
HETATM    8  O   LIG     1      -0.816  -0.707  -1.249  1.00  0.00    -0.321 OA
HETATM    9  C   LIG     1      -1.562  -0.580  -0.029  1.00  0.00     0.192 A 
HETATM   10  C   LIG     1      -2.673   0.433  -0.223  1.00  0.00     0.106 C 
HETATM   11  C   LIG     1      -3.835   0.320   0.449  1.00  0.00     0.060 C 
HETATM   12  C   LIG     1      -4.095  -0.806   1.363  1.00  0.00     0.175 C 
HETATM   13  O   LIG     1      -5.189  -0.860   1.984  1.00  0.00    -0.291 OA
HETATM   14  C   LIG     1      -2.108  -1.975   0.395  1.00  0.00     0.046 C 
HETATM   15  C   LIG     1      -0.993  -2.995   0.676  1.00  0.00     0.004 C 
HETATM   16  C   LIG     1      -3.057  -1.862   1.601  1.00  0.00     0.072 C 
HETATM   17  C   LIG     1      -0.529  -0.021   0.924  1.00  0.00     0.207 A 
HETATM   18  O   LIG     1      -0.726   0.292   2.129  1.00  0.00    -0.288 OA
ENDROOT
BRANCH  10  19
HETATM   19  O   LIG     1      -2.422   1.506  -1.097  1.00  0.00    -0.330 OA
HETATM   20  C   LIG     1      -3.339   2.557  -1.387  1.00  0.00     0.181 C 
ENDBRANCH  10  19
BRANCH   5  21
HETATM   21  O   LIG     1       2.133   1.015   1.963  1.00  0.00    -0.328 OA
HETATM   22  C   LIG     1       3.356   1.507   2.502  1.00  0.00     0.181 C 
ENDBRANCH   5  21
BRANCH   3  23
HETATM   23  O   LIG     1       3.803   0.207  -2.623  1.00  0.00    -0.327 OA
HETATM   24  C   LIG     1       5.136   0.647  -2.387  1.00  0.00     0.181 C 
ENDBRANCH   3  23
TORSDOF 3
