REMARK  2 active torsions:
REMARK  status: ('A' for Active; 'I' for Inactive)
REMARK    1  A    between atoms: C_19  and  C_20 
REMARK    2  A    between atoms: C_25  and  N_26 
ROOT
HETATM    1  O   LIG     1       3.197   2.551  -0.785  1.00  0.00    -0.287 OA
HETATM    2  C   LIG     1       2.906   1.368  -0.459  1.00  0.00     0.195 C 
HETATM    3  C   LIG     1       3.950   0.304  -0.435  1.00  0.00     0.063 A 
HETATM    4  C   LIG     1       5.318   0.616  -0.614  1.00  0.00     0.134 A 
HETATM    5  O   LIG     1       5.728   1.932  -0.828  1.00  0.00    -0.190 OA
HETATM    6  C   LIG     1       6.279  -0.399  -0.570  1.00  0.00     0.028 A 
HETATM    7  C   LIG     1       5.904  -1.719  -0.337  1.00  0.00     0.013 A 
HETATM    8  C   LIG     1       4.561  -2.051  -0.154  1.00  0.00     0.056 A 
HETATM    9 CL   LIG     1       4.169  -3.737   0.178  1.00  0.00    -0.083 Cl
HETATM   10  C   LIG     1       3.565  -1.050  -0.222  1.00  0.00     0.024 A 
HETATM   11  C   LIG     1       2.100  -1.417   0.003  1.00  0.00     0.179 C 
HETATM   12  O   LIG     1       1.843  -1.575   1.377  1.00  0.00    -0.218 OA
HETATM   13  C   LIG     1       1.133  -0.395  -0.645  1.00  0.00     0.062 C 
HETATM   14  C   LIG     1       1.500   1.000  -0.189  1.00  0.00     0.043 C 
HETATM   15  C   LIG     1       0.640   1.808   0.480  1.00  0.00     0.142 C 
HETATM   16  O   LIG     1       1.058   3.028   1.026  1.00  0.00    -0.192 OA
HETATM   17  C   LIG     1      -0.825   1.439   0.669  1.00  0.00     0.225 C 
HETATM   18  C   LIG     1      -1.672   1.932  -0.487  1.00  0.00     0.212 C 
HETATM   19  C   LIG     1      -3.057   1.429  -0.636  1.00  0.00     0.113 C 
HETATM   20  C   LIG     1      -3.466   0.349   0.067  1.00  0.00     0.147 C 
HETATM   21  O   LIG     1      -4.829   0.040   0.076  1.00  0.00    -0.193 OA
HETATM   22  C   LIG     1      -2.507  -0.465   0.952  1.00  0.00     0.270 C 
HETATM   23  O   LIG     1      -1.201   2.753  -1.323  1.00  0.00    -0.288 OA
HETATM   24  O   LIG     1      -1.293   2.006   1.873  1.00  0.00    -0.211 OA
HETATM   25  C   LIG     1      -1.000  -0.091   0.766  1.00  0.00     0.080 C 
HETATM   26  C   LIG     1      -0.353  -0.777  -0.457  1.00  0.00     0.013 C 
ENDROOT
BRANCH  19  27
HETATM   27  C   LIG     1      -4.000   2.152  -1.526  1.00  0.00     0.271 C 
HETATM   28  N   LIG     1      -3.977   3.578  -1.616  1.00  0.00    -0.057 NA
HETATM   29  O   LIG     1      -4.838   1.507  -2.214  1.00  0.00    -0.271 OA
ENDBRANCH  19  27
BRANCH  22  30
HETATM   30  N   LIG     1      -2.665  -1.947   0.850  1.00  0.00     0.146 N 
HETATM   31  C   LIG     1      -3.321  -2.549   2.021  1.00  0.00     0.286 C 
HETATM   32  C   LIG     1      -3.218  -2.472  -0.413  1.00  0.00     0.286 C 
ENDBRANCH  22  30
TORSDOF 2
