REMARK  0 active torsions:
REMARK  status: ('A' for Active; 'I' for Inactive)
ROOT
HETATM    1 CL   LIG     1      -1.175   1.093  -1.487  1.00  0.00    -0.068 Cl
HETATM    2  C   LIG     1      -0.629  -0.021  -0.237  1.00  0.00     0.136 C 
HETATM    3 CL   LIG     1      -1.799  -1.190   0.367  1.00  0.00    -0.068 Cl
HETATM    4  C   LIG     1       0.629   0.021   0.237  1.00  0.00     0.136 C 
HETATM    5 CL   LIG     1       1.175  -1.093   1.487  1.00  0.00    -0.068 Cl
HETATM    6 CL   LIG     1       1.799   1.190  -0.367  1.00  0.00    -0.068 Cl
ENDROOT
TORSDOF 0
