REMARK  0 active torsions:
REMARK  status: ('A' for Active; 'I' for Inactive)
REMARK       I    between atoms: C_2  and  N_3 
ROOT
HETATM    1  N   LIG     1       1.301  -0.457  -0.192  1.00  0.00    -0.036 NA
HETATM    2  C   LIG     1       0.411   0.472   0.430  1.00  0.00     0.379 C 
HETATM    3  N   LIG     1      -0.970   0.519   0.063  1.00  0.00    -0.040 NA
HETATM    4  O   LIG     1      -1.469  -0.302  -0.891  1.00  0.00    -0.057 OA
HETATM    5  O   LIG     1       0.849   1.257   1.312  1.00  0.00    -0.246 OA
ENDROOT
TORSDOF 0
