REMARK  0 active torsions:
REMARK  status: ('A' for Active; 'I' for Inactive)
REMARK       I    between atoms: C_2  and  N_3 
ROOT
HETATM    1  C   LIG     1       2.039   0.338   0.041  1.00  0.00     0.098 C 
HETATM    2  C   LIG     1       0.877  -0.614  -0.017  1.00  0.00     0.234 C 
HETATM    3  N   LIG     1      -0.488  -0.174  -0.204  1.00  0.00    -0.316 N 
HETATM    4  C   LIG     1      -0.822   1.247  -0.350  1.00  0.00     0.128 C 
HETATM    5  C   LIG     1      -1.555  -1.181  -0.247  1.00  0.00     0.128 C 
HETATM    6  O   LIG     1       1.123  -1.845   0.105  1.00  0.00    -0.272 OA
ENDROOT
TORSDOF 0
