REMARK  2 active torsions:
REMARK  status: ('A' for Active; 'I' for Inactive)
REMARK    1  A    between atoms: C_21  and  C_23 
REMARK    2  A    between atoms: C_23  and  C_24 
ROOT
HETATM    1  O   LIG     1      -6.141  -0.124   1.805  1.00  0.00    -0.291 OA
HETATM    2  C   LIG     1      -5.009   0.025   1.271  1.00  0.00     0.172 C 
HETATM    3  C   LIG     1      -4.367   1.381   1.274  1.00  0.00     0.070 C 
HETATM    4  C   LIG     1      -2.871   1.307   0.931  1.00  0.00     0.015 C 
HETATM    5  C   LIG     1      -2.563   0.384  -0.290  1.00  0.00     0.046 C 
HETATM    6  C   LIG     1      -3.207   1.003  -1.560  1.00  0.00     0.007 C 
HETATM    7  C   LIG     1      -3.206  -0.998  -0.055  1.00  0.00    -0.039 C 
HETATM    8  C   LIG     1      -2.487  -2.245  -0.549  1.00  0.00     0.022 C 
HETATM    9  C   LIG     1      -1.031  -2.337  -0.020  1.00  0.00     0.007 C 
HETATM   10  C   LIG     1      -0.490  -0.962   0.432  1.00  0.00     0.033 C 
HETATM   11  C   LIG     1      -1.001   0.180  -0.513  1.00  0.00     0.165 C 
HETATM   12  F   LIG     1      -0.853  -0.236  -1.827  1.00  0.00    -0.237 F 
HETATM   13  C   LIG     1      -0.097   1.449  -0.385  1.00  0.00     0.182 C 
HETATM   14  O   LIG     1      -0.092   1.933   0.935  1.00  0.00    -0.221 OA
HETATM   15  C   LIG     1       1.374   1.145  -0.828  1.00  0.00     0.038 C 
HETATM   16  C   LIG     1       1.911  -0.276  -0.403  1.00  0.00     0.035 C 
HETATM   17  C   LIG     1       1.952  -1.222  -1.654  1.00  0.00     0.003 C 
HETATM   18  C   LIG     1       1.036  -0.862   0.717  1.00  0.00     0.005 C 
HETATM   19  C   LIG     1       1.811  -2.047   1.271  1.00  0.00     0.003 C 
HETATM   20  C   LIG     1       3.291  -1.636   1.111  1.00  0.00     0.038 C 
HETATM   21  C   LIG     1       3.334  -0.311   0.282  1.00  0.00     0.180 C 
HETATM   22  O   LIG     1       4.373  -0.417  -0.667  1.00  0.00    -0.218 OA
HETATM   23  C   LIG     1      -4.356  -1.125   0.628  1.00  0.00     0.029 C 
ENDROOT
BRANCH  21  24
HETATM   24  C   LIG     1       3.615   0.875   1.229  1.00  0.00     0.211 C 
HETATM   25  O   LIG     1       3.025   0.949   2.299  1.00  0.00    -0.291 OA
BRANCH  24  26
HETATM   26  C   LIG     1       4.634   1.951   0.935  1.00  0.00     0.249 C 
HETATM   27  O   LIG     1       4.002   3.202   0.951  1.00  0.00    -0.212 OA
ENDBRANCH  24  26
ENDBRANCH  21  24
TORSDOF 2
