REMARK  4 active torsions:
REMARK  status: ('A' for Active; 'I' for Inactive)
REMARK    1  A    between atoms: O_2  and  C_3 
REMARK    2  A    between atoms: C_6  and  C_7 
REMARK    3  A    between atoms: C_7  and  C_8 
REMARK    4  A    between atoms: C_7  and  C_11 
ROOT
HETATM    1  C   LIG     1       1.039  -0.748  -0.223  1.00  0.00     0.167 C 
HETATM    2  O   LIG     1       1.202  -1.901   0.580  1.00  0.00    -0.217 OA
ENDROOT
BRANCH   1   3
HETATM    3  C   LIG     1      -0.432  -0.300  -0.157  1.00  0.00     0.009 A 
HETATM    4  C   LIG     1      -1.298  -0.350  -1.270  1.00  0.00     0.000 A 
HETATM    5  C   LIG     1      -2.634   0.042  -1.152  1.00  0.00     0.024 A 
HETATM    6  C   LIG     1      -3.145   0.475   0.074  1.00  0.00     0.094 A 
HETATM    7  C   LIG     1      -2.298   0.507   1.196  1.00  0.00     0.024 A 
HETATM    8  C   LIG     1      -0.962   0.115   1.081  1.00  0.00     0.000 A 
BRANCH   6   9
HETATM    9  O   LIG     1      -4.493   0.860   0.137  1.00  0.00    -0.328 OA
HETATM   10  C   LIG     1      -5.144   1.319   1.317  1.00  0.00     0.181 C 
ENDBRANCH   6   9
ENDBRANCH   1   3
BRANCH   1  11
HETATM   11  C   LIG     1       1.520  -1.013  -1.685  1.00  0.00     0.036 A 
HETATM   12  C   LIG     1       2.801  -1.826  -1.828  1.00  0.00     0.003 A 
HETATM   13  C   LIG     1       1.468  -2.433  -2.241  1.00  0.00     0.003 A 
ENDBRANCH   1  11
BRANCH   1  14
HETATM   14  C   LIG     1       1.919   0.379   0.321  1.00  0.00     0.047 A 
HETATM   15  C   LIG     1       1.848   1.672  -0.230  1.00  0.00     0.101 A 
HETATM   16  N   LIG     1       2.635   2.669   0.250  1.00  0.00    -0.223 NA
HETATM   17  C   LIG     1       3.506   2.443   1.265  1.00  0.00     0.199 A 
HETATM   18  N   LIG     1       3.603   1.207   1.815  1.00  0.00    -0.223 NA
HETATM   19  C   LIG     1       2.837   0.178   1.369  1.00  0.00     0.101 A 
ENDBRANCH   1  14
TORSDOF 4
