REMARK  4 active torsions:
REMARK  status: ('A' for Active; 'I' for Inactive)
REMARK    1  A    between atoms: C_2  and  C_3 
REMARK    2  A    between atoms: C_2  and  C_8 
REMARK    3  A    between atoms: C_3  and  C_4 
REMARK    4  A    between atoms: C_4  and  C_5 
ROOT
HETATM    1  C   LIG     1      -3.041  -0.088  -0.700  1.00  0.00     0.000 C 
HETATM    2  C   LIG     1      -2.921  -0.984  -1.975  1.00  0.00     0.000 C 
HETATM    3  C   LIG     1      -1.421  -1.216  -2.245  1.00  0.00     0.000 C 
HETATM    4  C   LIG     1      -0.732  -0.735  -0.978  1.00  0.00     0.002 C 
HETATM    5  C   LIG     1       0.833  -0.582  -0.926  1.00  0.00     0.030 C 
HETATM    6  C   LIG     1       1.571  -0.396  -2.276  1.00  0.00     0.152 C 
HETATM    7  O   LIG     1       1.137   0.780  -2.908  1.00  0.00    -0.224 OA
HETATM    8  C   LIG     1       3.124  -0.352  -2.097  1.00  0.00     0.033 C 
HETATM    9  C   LIG     1       3.585  -0.514  -0.624  1.00  0.00     0.005 C 
HETATM   10  C   LIG     1       5.120  -0.523  -0.475  1.00  0.00     0.033 C 
HETATM   11  C   LIG     1       5.531  -0.872   0.974  1.00  0.00     0.152 C 
HETATM   12  O   LIG     1       6.914  -0.694   1.148  1.00  0.00    -0.224 OA
HETATM   13  C   LIG     1       4.797  -0.008   2.018  1.00  0.00     0.033 C 
HETATM   14  C   LIG     1       3.270   0.054   1.793  1.00  0.00     0.003 C 
HETATM   15  C   LIG     1       2.876   0.498   0.351  1.00  0.00     0.000 C 
HETATM   16  C   LIG     1       3.381   1.957   0.104  1.00  0.00     0.000 C 
HETATM   17  C   LIG     1       1.294   0.496   0.094  1.00  0.00     0.003 C 
HETATM   18  C   LIG     1       0.367   0.500   1.337  1.00  0.00     0.000 C 
HETATM   19  C   LIG     1      -1.127   0.807   1.002  1.00  0.00     0.000 C 
HETATM   20  C   LIG     1      -1.571   0.447  -0.466  1.00  0.00     0.000 C 
HETATM   21  C   LIG     1      -1.455   1.729  -1.368  1.00  0.00     0.000 C 
ENDROOT
BRANCH   1  22
HETATM   22  C   LIG     1      -3.851  -0.811   0.445  1.00  0.00     0.001 C 
HETATM   23  C   LIG     1      -3.184  -2.079   1.029  1.00  0.00     0.000 C 
BRANCH  22  24
HETATM   24  C   LIG     1      -4.314   0.164   1.575  1.00  0.00     0.011 C 
BRANCH  24  25
HETATM   25  C   LIG     1      -5.851   0.246   1.750  1.00  0.00     0.098 C 
BRANCH  25  26
HETATM   26  C   LIG     1      -6.430   1.485   1.131  1.00  0.00     0.185 C 
HETATM   27  O   LIG     1      -6.366   1.692  -0.246  1.00  0.00    -0.647 OA
HETATM   28  O   LIG     1      -6.944   2.367   1.866  1.00  0.00    -0.647 OA
ENDBRANCH  25  26
ENDBRANCH  24  25
ENDBRANCH  22  24
ENDBRANCH   1  22
TORSDOF 4
