REMARK  4 active torsions:
REMARK  status: ('A' for Active; 'I' for Inactive)
REMARK    1  A    between atoms: O_2  and  C_3 
REMARK    2  A    between atoms: C_5  and  C_6 
REMARK    3  A    between atoms: C_10  and  O_11 
REMARK    4  A    between atoms: C_13  and  O_14 
ROOT
HETATM    1  C   LIG     1      -2.203   0.216   1.127  1.00  0.00     0.116 A 
HETATM    2  C   LIG     1      -1.956   0.032  -0.271  1.00  0.00     0.032 A 
HETATM    3  C   LIG     1      -0.820  -0.779  -0.906  1.00  0.00     0.275 C 
HETATM    4  N   LIG     1      -1.409  -1.800  -1.812  1.00  0.00     0.144 N 
HETATM    5  C   LIG     1      -2.207  -2.812  -1.089  1.00  0.00     0.286 C 
HETATM    6  C   LIG     1      -2.195  -1.198  -2.929  1.00  0.00     0.255 C 
HETATM    7  C   LIG     1      -2.671   0.256  -2.679  1.00  0.00     0.061 C 
HETATM    8  C   LIG     1      -2.900   0.527  -1.215  1.00  0.00    -0.018 A 
HETATM    9  C   LIG     1      -4.034   1.245  -0.797  1.00  0.00     0.022 A 
HETATM   10  C   LIG     1      -4.215   1.440   0.562  1.00  0.00     0.121 A 
HETATM   11  C   LIG     1      -3.348   0.951   1.485  1.00  0.00     0.141 A 
HETATM   12  O   LIG     1      -3.805   1.294   2.745  1.00  0.00    -0.298 OA
HETATM   13  C   LIG     1      -5.020   2.039   2.604  1.00  0.00     0.304 A 
HETATM   14  O   LIG     1      -5.246   2.108   1.193  1.00  0.00    -0.299 OA
ENDROOT
BRANCH   3  15
HETATM   15  C   LIG     1       0.282  -1.396   0.002  1.00  0.00     0.183 A 
HETATM   16  C   LIG     1       1.389  -0.409   0.339  1.00  0.00     0.015 A 
HETATM   17  C   LIG     1       1.307   0.850   0.942  1.00  0.00     0.001 A 
HETATM   18  C   LIG     1       2.601  -0.873  -0.124  1.00  0.00     0.086 A 
HETATM   19  C   LIG     1       2.482   1.597   1.115  1.00  0.00     0.026 A 
HETATM   20  C   LIG     1       3.727   1.099   0.681  1.00  0.00     0.116 A 
HETATM   21  C   LIG     1       3.783  -0.139  -0.007  1.00  0.00     0.121 A 
HETATM   22  C   LIG     1       2.341  -2.122  -0.789  1.00  0.00     0.298 A 
HETATM   23  O   LIG     1       3.193  -2.847  -1.366  1.00  0.00    -0.259 OA
HETATM   24  O   LIG     1       0.990  -2.417  -0.716  1.00  0.00    -0.294 OA
BRANCH  20  25
HETATM   25  O   LIG     1       4.873   1.854   0.953  1.00  0.00    -0.326 OA
HETATM   26  C   LIG     1       6.011   1.316   1.622  1.00  0.00     0.181 C 
ENDBRANCH  20  25
BRANCH  21  27
HETATM   27  O   LIG     1       4.956  -0.623  -0.590  1.00  0.00    -0.326 OA
HETATM   28  C   LIG     1       5.611   0.069  -1.648  1.00  0.00     0.181 C 
ENDBRANCH  21  27
ENDBRANCH   3  15
BRANCH   1  29
HETATM   29  O   LIG     1      -1.343  -0.325   2.094  1.00  0.00    -0.326 OA
HETATM   30  C   LIG     1      -1.486  -0.184   3.502  1.00  0.00     0.181 C 
ENDBRANCH   1  29
TORSDOF 4
