REMARK  0 active torsions:
REMARK  status: ('A' for Active; 'I' for Inactive)
ROOT
HETATM    1  C   LIG     1      -1.658  -0.858  -0.057  1.00  0.00     0.000 A 
HETATM    2  C   LIG     1      -1.251  -2.194  -0.194  1.00  0.00     0.000 A 
HETATM    3  C   LIG     1       0.108  -2.519  -0.248  1.00  0.00     0.000 A 
HETATM    4  C   LIG     1       1.083  -1.513  -0.166  1.00  0.00     0.000 A 
HETATM    5  C   LIG     1       2.449  -1.828  -0.220  1.00  0.00     0.000 A 
HETATM    6  C   LIG     1       3.409  -0.814  -0.136  1.00  0.00     0.000 A 
HETATM    7  C   LIG     1       3.019   0.522   0.001  1.00  0.00     0.000 A 
HETATM    8  C   LIG     1      -3.019  -0.522  -0.001  1.00  0.00     0.000 A 
HETATM    9  C   LIG     1      -3.409   0.814   0.136  1.00  0.00     0.000 A 
HETATM   10  C   LIG     1      -2.449   1.828   0.220  1.00  0.00     0.000 A 
HETATM   11  C   LIG     1      -1.083   1.513   0.166  1.00  0.00     0.000 A 
HETATM   12  C   LIG     1      -0.108   2.519   0.248  1.00  0.00     0.000 A 
HETATM   13  C   LIG     1       1.251   2.194   0.194  1.00  0.00     0.000 A 
HETATM   14  C   LIG     1       1.658   0.858   0.057  1.00  0.00     0.000 A 
HETATM   15  C   LIG     1       0.685  -0.164  -0.027  1.00  0.00     0.000 A 
HETATM   16  C   LIG     1      -0.685   0.164   0.027  1.00  0.00     0.000 A 
ENDROOT
TORSDOF 0
