REMARK  5 active torsions:
REMARK  status: ('A' for Active; 'I' for Inactive)
REMARK    1  A    between atoms: C_3  and  C_4 
REMARK    2  A    between atoms: C_4  and  C_5 
REMARK    3  A    between atoms: C_5  and  C_6 
REMARK    4  A    between atoms: N_8  and  C_9 
REMARK    5  A    between atoms: N_16  and  C_17 
ROOT
HETATM    1  O   LIG     1       0.281   2.614   1.334  1.00  0.00    -0.270 OA
HETATM    2  C   LIG     1       0.409   1.448   0.873  1.00  0.00     0.264 A 
HETATM    3  C   LIG     1       1.732   0.780   0.623  1.00  0.00     0.162 A 
HETATM    4  N   LIG     1      -0.695   0.618   0.518  1.00  0.00    -0.211 N 
HETATM    5  N   LIG     1      -0.189  -0.592   0.027  1.00  0.00    -0.211 N 
HETATM    6  C   LIG     1       1.235  -0.542   0.104  1.00  0.00     0.264 A 
HETATM    7  O   LIG     1       1.976  -1.522  -0.173  1.00  0.00    -0.270 OA
ENDROOT
BRANCH   4   8
HETATM    8  C   LIG     1      -2.044   1.081   0.332  1.00  0.00     0.085 A 
HETATM    9  C   LIG     1      -2.738   0.796  -0.856  1.00  0.00     0.021 A 
HETATM   10  C   LIG     1      -4.053   1.239  -1.028  1.00  0.00     0.029 A 
HETATM   11  C   LIG     1      -4.686   1.973  -0.020  1.00  0.00     0.131 A 
HETATM   12  C   LIG     1      -3.997   2.264   1.165  1.00  0.00     0.029 A 
HETATM   13  O   LIG     1      -5.996   2.408  -0.205  1.00  0.00    -0.190 OA
HETATM   14  C   LIG     1      -2.682   1.821   1.339  1.00  0.00     0.021 A 
ENDBRANCH   4   8
BRANCH   5  15
HETATM   15  C   LIG     1      -0.961  -1.790  -0.165  1.00  0.00     0.084 A 
HETATM   16  C   LIG     1      -2.017  -2.106   0.706  1.00  0.00     0.019 A 
HETATM   17  C   LIG     1      -2.771  -3.267   0.509  1.00  0.00     0.002 A 
HETATM   18  C   LIG     1      -2.474  -4.121  -0.557  1.00  0.00     0.000 A 
HETATM   19  C   LIG     1      -1.423  -3.816  -1.425  1.00  0.00     0.002 A 
HETATM   20  C   LIG     1      -0.668  -2.656  -1.231  1.00  0.00     0.019 A 
ENDBRANCH   5  15
BRANCH   3  21
HETATM   21  C   LIG     1       2.568   1.546  -0.430  1.00  0.00     0.019 C 
BRANCH  21  22
HETATM   22  C   LIG     1       4.081   1.496  -0.156  1.00  0.00     0.001 C 
BRANCH  22  23
HETATM   23  C   LIG     1       4.671   0.088  -0.306  1.00  0.00     0.000 C 
HETATM   24  C   LIG     1       6.194   0.116  -0.211  1.00  0.00     0.000 C 
ENDBRANCH  22  23
ENDBRANCH  21  22
ENDBRANCH   3  21
TORSDOF 5
