REMARK  4 active torsions:
REMARK  status: ('A' for Active; 'I' for Inactive)
REMARK    1  A    between atoms: C_1  and  C_3 
REMARK    2  A    between atoms: C_7  and  C_8 
REMARK    3  A    between atoms: C_8  and  C_10 
REMARK    4  A    between atoms: C_17  and  O_18 
ROOT
HETATM    1  C   LIG     1       1.048   1.618  -0.227  1.00  0.00     0.013 A 
HETATM    2  C   LIG     1       0.769   2.876   0.342  1.00  0.00     0.019 A 
HETATM    3  C   LIG     1       1.632   3.439   1.277  1.00  0.00     0.099 A 
HETATM    4  N   LIG     1       2.751   2.779   1.655  1.00  0.00    -0.244 NA
HETATM    5  C   LIG     1       3.069   1.558   1.155  1.00  0.00     0.081 A 
HETATM    6  C   LIG     1       2.225   0.927   0.201  1.00  0.00     0.018 A 
HETATM    7  C   LIG     1       2.594  -0.362  -0.257  1.00  0.00     0.025 A 
HETATM    8  C   LIG     1       3.763  -0.987   0.195  1.00  0.00     0.094 A 
HETATM    9  C   LIG     1       4.585  -0.330   1.123  1.00  0.00     0.026 A 
HETATM   10  C   LIG     1       4.236   0.931   1.599  1.00  0.00     0.021 A 
ENDROOT
BRANCH   1  11
HETATM   11  C   LIG     1       0.068   1.080  -1.274  1.00  0.00     0.206 C 
HETATM   12  O   LIG     1      -0.090   2.018  -2.313  1.00  0.00    -0.216 OA
BRANCH  11  13
HETATM   13  C   LIG     1      -1.301   0.696  -0.637  1.00  0.00     0.254 C 
HETATM   14  C   LIG     1      -1.186  -0.488   0.370  1.00  0.00     0.037 C 
HETATM   15  C   LIG     1      -2.284  -1.525   0.060  1.00  0.00     0.010 C 
HETATM   16  C   LIG     1      -3.673  -0.828   0.057  1.00  0.00     0.056 C 
HETATM   17  C   LIG     1      -2.019  -2.061  -1.358  1.00  0.00     0.036 C 
HETATM   18  C   LIG     1      -3.658   0.317  -1.007  1.00  0.00     0.255 C 
HETATM   19  N   LIG     1      -2.335   0.407  -1.674  1.00  0.00     0.138 N 
HETATM   20  C   LIG     1      -2.069  -0.884  -2.364  1.00  0.00     0.250 C 
BRANCH  16  21
HETATM   21  C   LIG     1      -4.049  -0.324   1.435  1.00  0.00    -0.024 C 
HETATM   22  C   LIG     1      -4.325  -1.168   2.434  1.00  0.00    -0.005 C 
ENDBRANCH  16  21
ENDBRANCH  11  13
ENDBRANCH   1  11
BRANCH   8  23
HETATM   23  O   LIG     1       4.067  -2.264  -0.302  1.00  0.00    -0.328 OA
HETATM   24  C   LIG     1       5.215  -3.020   0.068  1.00  0.00     0.181 C 
ENDBRANCH   8  23
TORSDOF 4
