REMARK  1 active torsions:
REMARK  status: ('A' for Active; 'I' for Inactive)
REMARK    1  A    between atoms: C_7  and  C_8 
ROOT
HETATM    1 CL   LIG     1       0.525  -2.713   0.659  1.00  0.00    -0.082 Cl
HETATM    2  C   LIG     1       1.408  -1.235   0.291  1.00  0.00     0.058 A 
HETATM    3  C   LIG     1       2.808  -1.274   0.277  1.00  0.00     0.011 A 
HETATM    4  C   LIG     1       3.542  -0.129  -0.042  1.00  0.00     0.001 A 
HETATM    5  C   LIG     1       2.881   1.061  -0.354  1.00  0.00     0.000 A 
HETATM    6  C   LIG     1       1.484   1.110  -0.344  1.00  0.00     0.001 A 
HETATM    7  C   LIG     1       0.738  -0.032  -0.013  1.00  0.00     0.011 A 
ENDROOT
BRANCH   7   8
HETATM    8  C   LIG     1      -0.737   0.048  -0.007  1.00  0.00     0.011 A 
HETATM    9  C   LIG     1      -1.423   0.133  -1.228  1.00  0.00     0.001 A 
HETATM   10  C   LIG     1      -2.819   0.207  -1.250  1.00  0.00     0.000 A 
HETATM   11  C   LIG     1      -3.538   0.203  -0.053  1.00  0.00     0.001 A 
HETATM   12  C   LIG     1      -2.864   0.130   1.169  1.00  0.00     0.011 A 
HETATM   13  C   LIG     1      -1.466   0.055   1.201  1.00  0.00     0.058 A 
HETATM   14 CL   LIG     1      -0.657   0.005   2.764  1.00  0.00    -0.082 Cl
ENDBRANCH   7   8
TORSDOF 1
