REMARK  4 active torsions:
REMARK  status: ('A' for Active; 'I' for Inactive)
REMARK    1  A    between atoms: C_2  and  C_5 
REMARK    2  A    between atoms: C_2  and  O_3 
REMARK    3  A    between atoms: C_10  and  C_11 
REMARK    4  A    between atoms: C_11  and  O_12 
ROOT
HETATM    1  C   LIG     1       0.961   0.838  -0.339  1.00  0.00     0.068 A 
HETATM    2  C   LIG     1       1.502   2.110  -0.608  1.00  0.00     0.005 A 
HETATM    3  C   LIG     1       0.676   3.174  -0.971  1.00  0.00     0.000 A 
HETATM    4  C   LIG     1      -0.701   2.987  -1.069  1.00  0.00     0.000 A 
HETATM    5  C   LIG     1      -1.256   1.730  -0.828  1.00  0.00     0.005 A 
HETATM    6  C   LIG     1      -0.440   0.638  -0.482  1.00  0.00     0.068 A 
ENDROOT
BRANCH   1   7
HETATM    7  C   LIG     1       1.872  -0.219   0.156  1.00  0.00     0.296 C 
HETATM    8  O   LIG     1       3.062  -0.267  -0.261  1.00  0.00    -0.259 OA
BRANCH   7   9
HETATM    9  O   LIG     1       1.430  -1.128   1.124  1.00  0.00    -0.296 OA
HETATM   10  C   LIG     1       2.259  -2.161   1.643  1.00  0.00     0.185 C 
ENDBRANCH   7   9
ENDBRANCH   1   7
BRANCH   6  11
HETATM   11  C   LIG     1      -1.080  -0.691  -0.352  1.00  0.00     0.296 C 
HETATM   12  O   LIG     1      -0.468  -1.731  -0.721  1.00  0.00    -0.259 OA
BRANCH  11  13
HETATM   13  O   LIG     1      -2.389  -0.781   0.131  1.00  0.00    -0.296 OA
HETATM   14  C   LIG     1      -3.073  -2.020   0.268  1.00  0.00     0.185 C 
ENDBRANCH  11  13
ENDBRANCH   6  11
TORSDOF 4
