REMARK  8 active torsions:
REMARK  status: ('A' for Active; 'I' for Inactive)
REMARK    1  A    between atoms: C_2  and  C_3 
REMARK    2  A    between atoms: C_2  and  O_15 
REMARK    3  A    between atoms: C_8  and  C_9 
REMARK    4  A    between atoms: C_9  and  O_10 
REMARK    5  A    between atoms: O_10  and  C_11 
REMARK    6  A    between atoms: C_11  and  C_12 
REMARK    7  A    between atoms: O_15  and  C_16 
REMARK    8  A    between atoms: C_16  and  C_17 
ROOT
HETATM    1  C   LIG     1       0.907  -1.257   0.337  1.00  0.00     0.068 A 
HETATM    2  C   LIG     1       1.758  -2.301   0.745  1.00  0.00     0.005 A 
HETATM    3  C   LIG     1       1.462  -3.060   1.877  1.00  0.00     0.000 A 
HETATM    4  C   LIG     1       0.314  -2.791   2.619  1.00  0.00     0.000 A 
HETATM    5  C   LIG     1      -0.531  -1.746   2.245  1.00  0.00     0.005 A 
HETATM    6  C   LIG     1      -0.240  -0.953   1.121  1.00  0.00     0.068 A 
ENDROOT
BRANCH   1   7
HETATM    7  C   LIG     1       1.220  -0.565  -0.934  1.00  0.00     0.296 C 
HETATM    8  O   LIG     1       0.289  -0.179  -1.694  1.00  0.00    -0.259 OA
BRANCH   7   9
HETATM    9  O   LIG     1       2.557  -0.394  -1.315  1.00  0.00    -0.294 OA
BRANCH   9  10
HETATM   10  C   LIG     1       2.954   0.290  -2.501  1.00  0.00     0.178 C 
BRANCH  10  11
HETATM   11  C   LIG     1       2.744   1.771  -2.342  1.00  0.00     0.006 C 
HETATM   12  C   LIG     1       3.762   2.636  -2.353  1.00  0.00    -0.002 C 
ENDBRANCH  10  11
ENDBRANCH   9  10
ENDBRANCH   7   9
ENDBRANCH   1   7
BRANCH   6  13
HETATM   13  C   LIG     1      -1.116   0.209   0.846  1.00  0.00     0.296 C 
HETATM   14  O   LIG     1      -0.627   1.281   0.396  1.00  0.00    -0.259 OA
BRANCH  13  15
HETATM   15  O   LIG     1      -2.482   0.128   1.146  1.00  0.00    -0.294 OA
BRANCH  15  16
HETATM   16  C   LIG     1      -3.406   1.181   0.885  1.00  0.00     0.178 C 
BRANCH  16  17
HETATM   17  C   LIG     1      -3.668   1.289  -0.593  1.00  0.00     0.006 C 
HETATM   18  C   LIG     1      -4.876   1.065  -1.117  1.00  0.00    -0.002 C 
ENDBRANCH  16  17
ENDBRANCH  15  16
ENDBRANCH  13  15
ENDBRANCH   6  13
TORSDOF 8
