REMARK  6 active torsions:
REMARK  status: ('A' for Active; 'I' for Inactive)
REMARK    1  A    between atoms: C_2  and  C_3 
REMARK    2  A    between atoms: C_2  and  O_10 
REMARK    3  A    between atoms: O_10  and  C_11 
REMARK    4  A    between atoms: C_11  and  C_12 
REMARK    5  A    between atoms: C_12  and  C_13 
REMARK    6  A    between atoms: C_13  and  C_14 
ROOT
HETATM    1  O   LIG     1       0.578  -0.467   1.896  1.00  0.00    -0.259 OA
HETATM    2  C   LIG     1       0.888   0.308   0.949  1.00  0.00     0.296 C 
ENDROOT
BRANCH   2   3
HETATM    3  C   LIG     1       2.238   0.243   0.348  1.00  0.00     0.063 A 
HETATM    4  C   LIG     1       2.588   1.103  -0.708  1.00  0.00     0.006 A 
HETATM    5  C   LIG     1       3.863   1.043  -1.278  1.00  0.00     0.014 A 
HETATM    6  C   LIG     1       4.807   0.124  -0.803  1.00  0.00     0.070 A 
HETATM    7  C   LIG     1       4.465  -0.736   0.248  1.00  0.00     0.014 A 
HETATM    8  N   LIG     1       6.111   0.064  -1.388  1.00  0.00    -0.101 NA
HETATM    9  C   LIG     1       3.191  -0.678   0.821  1.00  0.00     0.006 A 
ENDBRANCH   2   3
BRANCH   2  10
HETATM   10  O   LIG     1      -0.043   1.238   0.469  1.00  0.00    -0.298 OA
BRANCH  10  11
HETATM   11  C   LIG     1      -1.384   1.329   0.948  1.00  0.00     0.152 C 
BRANCH  11  12
HETATM   12  C   LIG     1      -2.236   0.191   0.378  1.00  0.00     0.033 C 
BRANCH  12  13
HETATM   13  C   LIG     1      -3.697   0.315   0.834  1.00  0.00     0.003 C 
BRANCH  13  14
HETATM   14  C   LIG     1      -4.558  -0.876   0.387  1.00  0.00     0.000 C 
HETATM   15  C   LIG     1      -4.812  -0.889  -1.120  1.00  0.00     0.000 C 
ENDBRANCH  13  14
ENDBRANCH  12  13
ENDBRANCH  11  12
ENDBRANCH  10  11
ENDBRANCH   2  10
TORSDOF 6
