REMARK  0 active torsions:
REMARK  status: ('A' for Active; 'I' for Inactive)
ROOT
HETATM    1  C   LIG     1       0.655  -0.323   0.186  1.00  0.00     0.025 A 
HETATM    2  C   LIG     1       1.143   0.721  -0.571  1.00  0.00     0.100 A 
HETATM    3  C   LIG     1       2.511   0.892  -0.772  1.00  0.00     0.025 A 
HETATM    4  C   LIG     1       3.385  -0.037  -0.176  1.00  0.00     0.002 A 
HETATM    5  C   LIG     1       2.880  -1.105   0.600  1.00  0.00     0.000 A 
HETATM    6  C   LIG     1       1.494  -1.258   0.789  1.00  0.00     0.002 A 
HETATM    7  O   LIG     1       0.163   1.472  -1.036  1.00  0.00    -0.307 OA
HETATM    8  C   LIG     1      -0.959   0.937  -0.596  1.00  0.00     0.100 A 
HETATM    9  C   LIG     1      -0.711  -0.183   0.170  1.00  0.00     0.025 A 
HETATM   10  C   LIG     1      -1.736  -0.927   0.750  1.00  0.00     0.002 A 
HETATM   11  C   LIG     1      -3.058  -0.496   0.528  1.00  0.00     0.000 A 
HETATM   12  C   LIG     1      -3.317   0.651  -0.256  1.00  0.00     0.002 A 
HETATM   13  C   LIG     1      -2.259   1.381  -0.829  1.00  0.00     0.025 A 
ENDROOT
TORSDOF 0
