REMARK  0 active torsions:
REMARK  status: ('A' for Active; 'I' for Inactive)
ROOT
HETATM    1  C   LIG     1      -0.698  -0.057  -0.165  1.00  0.00     0.006 A 
HETATM    2  C   LIG     1      -1.523  -0.447  -1.228  1.00  0.00     0.001 A 
HETATM    3  C   LIG     1      -2.917  -0.377  -1.065  1.00  0.00     0.000 A 
HETATM    4  C   LIG     1      -3.474   0.077   0.145  1.00  0.00     0.001 A 
HETATM    5  C   LIG     1      -2.643   0.466   1.206  1.00  0.00     0.006 A 
HETATM    6  C   LIG     1      -1.264   0.391   1.028  1.00  0.00     0.030 A 
HETATM    7  S   LIG     1      -0.059   0.795   2.137  1.00  0.00    -0.086 SA
HETATM    8  C   LIG     1       1.205   0.399   1.093  1.00  0.00     0.030 A 
HETATM    9  C   LIG     1       0.706  -0.052  -0.128  1.00  0.00     0.006 A 
HETATM   10  C   LIG     1       1.588  -0.437  -1.146  1.00  0.00     0.001 A 
HETATM   11  C   LIG     1       2.971  -0.358  -0.910  1.00  0.00     0.000 A 
HETATM   12  C   LIG     1       3.461   0.099   0.328  1.00  0.00     0.001 A 
HETATM   13  C   LIG     1       2.573   0.483   1.344  1.00  0.00     0.006 A 
ENDROOT
TORSDOF 0
