REMARK  1 active torsions:
REMARK  status: ('A' for Active; 'I' for Inactive)
REMARK    1  A    between atoms: C_2  and  C_4 
ROOT
HETATM    1  C   LIG     1       0.933  -0.158   0.185  1.00  0.00     0.077 A 
HETATM    2  C   LIG     1      -0.257  -0.935   0.219  1.00  0.00     0.077 A 
HETATM    3 CL   LIG     1      -0.207  -2.668   0.567  1.00  0.00    -0.081 Cl
HETATM    4  C   LIG     1      -1.500  -0.327  -0.080  1.00  0.00     0.082 A 
HETATM    5  N   LIG     1      -2.725  -1.072  -0.051  1.00  0.00    -0.100 NA
HETATM    6  C   LIG     1      -1.545   1.032  -0.418  1.00  0.00     0.026 A 
HETATM    7  C   LIG     1      -0.377   1.789  -0.467  1.00  0.00     0.059 A 
HETATM    8 CL   LIG     1      -0.453   3.489  -0.896  1.00  0.00    -0.082 Cl
HETATM    9  C   LIG     1       0.851   1.200  -0.170  1.00  0.00     0.018 A 
ENDROOT
BRANCH   1  10
HETATM   10  C   LIG     1       2.271  -0.716   0.508  1.00  0.00     0.212 C 
HETATM   11  O   LIG     1       2.393  -1.744   1.226  1.00  0.00    -0.644 OA
HETATM   12  O   LIG     1       3.419  -0.078   0.043  1.00  0.00    -0.644 OA
ENDBRANCH   1  10
TORSDOF 1
