REMARK  1 active torsions:
REMARK  status: ('A' for Active; 'I' for Inactive)
REMARK    1  A    between atoms: C_2  and  C_3 
ROOT
HETATM    1  C   LIG     1      -0.704  -0.269   0.001  1.00  0.00     0.091 A 
HETATM    2  C   LIG     1       0.248  -1.223   0.402  1.00  0.00     0.014 A 
HETATM    3  C   LIG     1       1.612  -0.932   0.349  1.00  0.00     0.031 A 
HETATM    4  I   LIG     1       3.023  -2.380   0.949  1.00  0.00    -0.043 I 
HETATM    5  C   LIG     1      -0.265   0.992  -0.465  1.00  0.00     0.142 A 
HETATM    6  C   LIG     1       1.117   1.276  -0.519  1.00  0.00     0.056 A 
HETATM    7  I   LIG     1       1.879   3.133  -1.199  1.00  0.00    -0.041 I 
HETATM    8  C   LIG     1       2.043   0.312  -0.110  1.00  0.00     0.014 A 
HETATM    9  O   LIG     1      -1.209   1.947  -0.852  1.00  0.00    -0.190 OA
ENDROOT
BRANCH   1  10
HETATM   10  C   LIG     1      -2.149  -0.606   0.055  1.00  0.00     0.213 C 
HETATM   11  O   LIG     1      -2.948  -0.097  -0.775  1.00  0.00    -0.644 OA
HETATM   12  O   LIG     1      -2.652  -1.486   1.012  1.00  0.00    -0.644 OA
ENDBRANCH   1  10
TORSDOF 1
