REMARK  0 active torsions:
REMARK  status: ('A' for Active; 'I' for Inactive)
ROOT
HETATM    1  N   LIG     1      -1.300   2.423   0.149  1.00  0.00    -0.101 NA
HETATM    2  C   LIG     1      -1.148   1.009  -0.057  1.00  0.00     0.070 A 
HETATM    3  C   LIG     1      -2.311   0.226  -0.137  1.00  0.00     0.014 A 
HETATM    4  C   LIG     1      -2.235  -1.155  -0.308  1.00  0.00     0.001 A 
HETATM    5  C   LIG     1      -0.997  -1.783  -0.406  1.00  0.00     0.000 A 
HETATM    6  C   LIG     1       0.184  -1.031  -0.343  1.00  0.00     0.001 A 
HETATM    7  C   LIG     1       1.426  -1.676  -0.452  1.00  0.00     0.000 A 
HETATM    8  C   LIG     1       2.609  -0.939  -0.404  1.00  0.00     0.000 A 
HETATM    9  C   LIG     1       2.564   0.445  -0.252  1.00  0.00     0.000 A 
HETATM   10  C   LIG     1       1.337   1.105  -0.140  1.00  0.00     0.001 A 
HETATM   11  C   LIG     1       0.124   0.381  -0.173  1.00  0.00     0.013 A 
ENDROOT
TORSDOF 0
