REMARK  7 active torsions:
REMARK  status: ('A' for Active; 'I' for Inactive)
REMARK    1  A    between atoms: C_2  and  C_3 
REMARK    2  A    between atoms: C_3  and  C_4 
REMARK    3  A    between atoms: C_4  and  C_5 
REMARK    4  A    between atoms: C_5  and  C_6 
REMARK    5  A    between atoms: C_6  and  O_7 
REMARK    6  A    between atoms: O_7  and  C_8 
REMARK    7  A    between atoms: C_8  and  C_9 
ROOT
HETATM    1  C   LIG     1       1.420   0.522   1.052  1.00  0.00     0.296 C 
HETATM    2  O   LIG     1       1.187   1.756   1.182  1.00  0.00    -0.259 OA
ENDROOT
BRANCH   1   3
HETATM    3  O   LIG     1       0.453  -0.419   1.429  1.00  0.00    -0.298 OA
BRANCH   3   4
HETATM    4  C   LIG     1      -0.854  -0.070   1.881  1.00  0.00     0.152 C 
BRANCH   4   5
HETATM    5  C   LIG     1      -1.719   0.413   0.713  1.00  0.00     0.033 C 
BRANCH   5   6
HETATM    6  C   LIG     1      -3.153   0.710   1.175  1.00  0.00     0.003 C 
BRANCH   6   7
HETATM    7  C   LIG     1      -4.010   1.371   0.080  1.00  0.00     0.000 C 
BRANCH   7   8
HETATM    8  C   LIG     1      -4.231   0.509  -1.176  1.00  0.00     0.000 C 
HETATM    9  C   LIG     1      -4.979  -0.791  -0.885  1.00  0.00     0.000 C 
ENDBRANCH   7   8
ENDBRANCH   6   7
ENDBRANCH   5   6
ENDBRANCH   4   5
ENDBRANCH   3   4
ENDBRANCH   1   3
BRANCH   1  10
HETATM   10  C   LIG     1       2.719   0.066   0.512  1.00  0.00     0.063 A 
HETATM   11  C   LIG     1       2.984  -1.307   0.364  1.00  0.00     0.006 A 
HETATM   12  C   LIG     1       4.210  -1.742  -0.147  1.00  0.00     0.014 A 
HETATM   13  C   LIG     1       5.191  -0.812  -0.518  1.00  0.00     0.070 A 
HETATM   14  C   LIG     1       4.933   0.557  -0.374  1.00  0.00     0.014 A 
HETATM   15  N   LIG     1       6.445  -1.258  -1.041  1.00  0.00    -0.101 NA
HETATM   16  C   LIG     1       3.708   0.995   0.137  1.00  0.00     0.006 A 
ENDBRANCH   1  10
TORSDOF 7
