REMARK  2 active torsions:
REMARK  status: ('A' for Active; 'I' for Inactive)
REMARK    1  A    between atoms: C_2  and  C_3 
REMARK    2  A    between atoms: C_2  and  C_5 
ROOT
HETATM    1  C   LIG     1       0.435  -0.287  -0.015  1.00  0.00    -0.022 A 
HETATM    2  C   LIG     1       1.116  -0.722  -1.167  1.00  0.00    -0.004 A 
HETATM    3  C   LIG     1       2.417  -0.283  -1.429  1.00  0.00    -0.000 A 
HETATM    4  C   LIG     1       3.053   0.593  -0.546  1.00  0.00    -0.000 A 
HETATM    5  C   LIG     1       2.388   1.032   0.601  1.00  0.00    -0.000 A 
HETATM    6  C   LIG     1       1.087   0.597   0.868  1.00  0.00    -0.004 A 
ENDROOT
BRANCH   1   7
HETATM    7  C   LIG     1      -0.981  -0.765   0.256  1.00  0.00     0.022 C 
HETATM    8  C   LIG     1      -1.040  -1.563   1.564  1.00  0.00     0.004 C 
BRANCH   7   9
HETATM    9  C   LIG     1      -1.991   0.403   0.283  1.00  0.00     0.004 C 
HETATM   10  C   LIG     1      -2.077   1.126  -1.062  1.00  0.00     0.000 C 
ENDBRANCH   7   9
ENDBRANCH   1   7
TORSDOF 2
