REMARK  0 active torsions:
REMARK  status: ('A' for Active; 'I' for Inactive)
ROOT
HETATM    1  O   LIG     1       3.428  -1.210  -0.169  1.00  0.00    -0.190 OA
HETATM    2  C   LIG     1       2.201  -0.555  -0.109  1.00  0.00     0.131 A 
HETATM    3  C   LIG     1       1.021  -1.305  -0.049  1.00  0.00     0.027 A 
HETATM    4  C   LIG     1      -0.224  -0.660   0.012  1.00  0.00     0.002 A 
HETATM    5  C   LIG     1      -1.413  -1.404   0.073  1.00  0.00     0.000 A 
HETATM    6  C   LIG     1      -2.647  -0.750   0.133  1.00  0.00     0.000 A 
HETATM    7  C   LIG     1      -2.705   0.646   0.134  1.00  0.00     0.000 A 
HETATM    8  C   LIG     1      -1.528   1.399   0.074  1.00  0.00     0.000 A 
HETATM    9  C   LIG     1      -0.283   0.755   0.013  1.00  0.00     0.000 A 
HETATM   10  C   LIG     1       0.906   1.499  -0.048  1.00  0.00     0.002 A 
HETATM   11  C   LIG     1       2.140   0.846  -0.108  1.00  0.00     0.027 A 
ENDROOT
TORSDOF 0
