REMARK  5 active torsions:
REMARK  status: ('A' for Active; 'I' for Inactive)
REMARK    1  A    between atoms: C_3  and  C_9 
REMARK    2  A    between atoms: C_9  and  C_10 
REMARK    3  A    between atoms: C_10  and  C_11 
REMARK    4  A    between atoms: C_11  and  C_12 
REMARK    5  A    between atoms: C_12  and  C_13 
ROOT
HETATM    1  O   LIG     1       1.910  -1.325   2.397  1.00  0.00    -0.190 OA
HETATM    2  C   LIG     1       2.559  -0.822   1.269  1.00  0.00     0.129 A 
HETATM    3  C   LIG     1       1.835  -0.576   0.085  1.00  0.00     0.003 A 
HETATM    4  C   LIG     1       2.502  -0.041  -1.030  1.00  0.00    -0.000 A 
HETATM    5  C   LIG     1       3.873   0.221  -0.977  1.00  0.00     0.027 A 
HETATM    6  C   LIG     1       4.594  -0.039   0.195  1.00  0.00     0.133 A 
HETATM    7  O   LIG     1       5.962   0.218   0.259  1.00  0.00    -0.190 OA
HETATM    8  C   LIG     1       3.936  -0.557   1.314  1.00  0.00     0.054 A 
ENDROOT
BRANCH   3   9
HETATM    9  C   LIG     1       0.348  -0.821   0.018  1.00  0.00     0.028 C 
BRANCH   9  10
HETATM   10  C   LIG     1      -0.422   0.418   0.499  1.00  0.00     0.005 C 
BRANCH  10  11
HETATM   11  C   LIG     1      -1.939   0.182   0.575  1.00  0.00     0.000 C 
BRANCH  11  12
HETATM   12  C   LIG     1      -2.599   0.134  -0.814  1.00  0.00     0.000 C 
BRANCH  12  13
HETATM   13  C   LIG     1      -4.117  -0.096  -0.735  1.00  0.00     0.000 C 
HETATM   14  C   LIG     1      -4.878   1.133  -0.237  1.00  0.00     0.000 C 
ENDBRANCH  12  13
ENDBRANCH  11  12
ENDBRANCH  10  11
ENDBRANCH   9  10
ENDBRANCH   3   9
TORSDOF 5
