REMARK  5 active torsions:
REMARK  status: ('A' for Active; 'I' for Inactive)
REMARK    1  A    between atoms: C_2  and  C_3 
REMARK    2  A    between atoms: C_2  and  O_9 
REMARK    3  A    between atoms: O_9  and  C_10 
REMARK    4  A    between atoms: C_10  and  C_11 
REMARK    5  A    between atoms: C_11  and  C_12 
ROOT
HETATM    1  O   LIG     1       0.347  -0.974   1.895  1.00  0.00    -0.259 OA
HETATM    2  C   LIG     1       0.742  -0.365   0.862  1.00  0.00     0.296 C 
ENDROOT
BRANCH   2   3
HETATM    3  C   LIG     1       2.184  -0.103   0.660  1.00  0.00     0.063 A 
HETATM    4  C   LIG     1       2.628   0.576  -0.490  1.00  0.00     0.005 A 
HETATM    5  C   LIG     1       3.991   0.824  -0.683  1.00  0.00     0.000 A 
HETATM    6  C   LIG     1       4.923   0.399   0.267  1.00  0.00     0.000 A 
HETATM    7  C   LIG     1       4.494  -0.276   1.412  1.00  0.00     0.000 A 
HETATM    8  C   LIG     1       3.132  -0.527   1.610  1.00  0.00     0.005 A 
ENDBRANCH   2   3
BRANCH   2   9
HETATM    9  O   LIG     1      -0.184   0.065  -0.094  1.00  0.00    -0.298 OA
BRANCH   9  10
HETATM   10  C   LIG     1      -1.585  -0.153   0.037  1.00  0.00     0.152 C 
BRANCH  10  11
HETATM   11  C   LIG     1      -2.305   0.436  -1.177  1.00  0.00     0.033 C 
BRANCH  11  12
HETATM   12  C   LIG     1      -3.809   0.124  -1.184  1.00  0.00     0.003 C 
HETATM   13  C   LIG     1      -4.575   0.884  -0.101  1.00  0.00     0.000 C 
ENDBRANCH  11  12
ENDBRANCH  10  11
ENDBRANCH   9  10
ENDBRANCH   2   9
TORSDOF 5
