REMARK  3 active torsions:
REMARK  status: ('A' for Active; 'I' for Inactive)
REMARK    1  A    between atoms: C_5  and  C_10 
REMARK    2  A    between atoms: C_5  and  O_6 
REMARK    3  A    between atoms: O_6  and  C_7 
ROOT
HETATM    1  C   LIG     1       1.398   1.325   1.045  1.00  0.00     0.003 C 
HETATM    2  C   LIG     1       1.236   0.014   0.200  1.00  0.00     0.030 C 
HETATM    3  C   LIG     1       0.822   0.397  -1.275  1.00  0.00     0.003 C 
HETATM    4  C   LIG     1      -0.691   0.200  -1.584  1.00  0.00     0.001 C 
HETATM    5  C   LIG     1       2.541  -0.860   0.381  1.00  0.00     0.152 C 
HETATM    6  C   LIG     1       2.310  -1.556   1.759  1.00  0.00     0.035 C 
HETATM    7  C   LIG     1       0.808  -1.477   2.088  1.00  0.00     0.003 C 
HETATM    8  C   LIG     1       0.175  -0.907   0.827  1.00  0.00     0.007 C 
HETATM    9  C   LIG     1      -1.278  -0.353   0.844  1.00  0.00     0.024 C 
HETATM   10  C   LIG     1      -1.761   0.367   2.080  1.00  0.00    -0.015 C 
HETATM   11  C   LIG     1      -2.993   0.898   2.053  1.00  0.00     0.050 C 
HETATM   12 CL   LIG     1      -3.626   1.705   3.482  1.00  0.00    -0.083 Cl
HETATM   13  C   LIG     1      -1.554   0.588  -0.361  1.00  0.00     0.012 C 
HETATM   14  C   LIG     1      -3.103   0.758  -0.572  1.00  0.00     0.039 C 
HETATM   15  C   LIG     1      -3.703  -0.329  -1.457  1.00  0.00    -0.019 C 
HETATM   16  C   LIG     1      -4.998  -0.649  -1.362  1.00  0.00     0.038 C 
HETATM   17  C   LIG     1      -3.384   2.115  -1.257  1.00  0.00     0.009 C 
HETATM   18  C   LIG     1      -3.808   0.774   0.809  1.00  0.00    -0.006 C 
HETATM   19  C   LIG     1      -5.117   0.487   0.900  1.00  0.00     0.039 C 
HETATM   20  C   LIG     1      -5.803  -0.134  -0.243  1.00  0.00     0.195 C 
HETATM   21  O   LIG     1      -7.050  -0.305  -0.222  1.00  0.00    -0.287 OA
ENDROOT
BRANCH   5  22
HETATM   22  C   LIG     1       2.778  -1.967  -0.659  1.00  0.00     0.176 C 
HETATM   23  C   LIG     1       4.118  -2.638  -0.773  1.00  0.00     0.075 C 
HETATM   24  O   LIG     1       1.869  -2.389  -1.358  1.00  0.00    -0.294 OA
ENDBRANCH   5  22
BRANCH   5  25
HETATM   25  O   LIG     1       3.715  -0.035   0.482  1.00  0.00    -0.300 OA
BRANCH  25  26
HETATM   26  C   LIG     1       4.288   0.697  -0.568  1.00  0.00     0.273 C 
HETATM   27  C   LIG     1       5.475   1.554  -0.295  1.00  0.00     0.106 C 
HETATM   28  O   LIG     1       3.850   0.600  -1.746  1.00  0.00    -0.264 OA
ENDBRANCH  25  26
ENDBRANCH   5  25
TORSDOF 3
