REMARK  5 active torsions:
REMARK  status: ('A' for Active; 'I' for Inactive)
REMARK    1  A    between atoms: C_2  and  N_10 
REMARK    2  A    between atoms: C_2  and  S_3 
REMARK    3  A    between atoms: S_3  and  S_4 
REMARK    4  A    between atoms: S_4  and  C_5 
REMARK    5  A    between atoms: C_5  and  N_6 
ROOT
HETATM    1  S   LIG     1      -0.412   1.149  -0.224  1.00  0.00    -0.020 SA
ENDROOT
BRANCH   1   2
HETATM    2  C   LIG     1      -1.721   0.207   0.569  1.00  0.00     0.149 C 
HETATM    3  S   LIG     1      -1.482  -0.267   2.122  1.00  0.00    -0.052 SA
BRANCH   2   4
HETATM    4  N   LIG     1      -2.977  -0.039  -0.106  1.00  0.00    -0.331 N 
HETATM    5  C   LIG     1      -3.227   0.563  -1.420  1.00  0.00     0.127 C 
HETATM    6  C   LIG     1      -3.999  -0.894   0.509  1.00  0.00     0.127 C 
ENDBRANCH   2   4
ENDBRANCH   1   2
BRANCH   1   7
HETATM    7  S   LIG     1       0.385  -0.562  -1.220  1.00  0.00    -0.020 SA
BRANCH   7   8
HETATM    8  C   LIG     1       1.745  -0.736  -0.058  1.00  0.00     0.149 C 
HETATM    9  S   LIG     1       1.577  -1.837   1.149  1.00  0.00    -0.052 SA
BRANCH   8  10
HETATM   10  N   LIG     1       2.979  -0.002  -0.238  1.00  0.00    -0.331 N 
HETATM   11  C   LIG     1       3.165   0.827  -1.433  1.00  0.00     0.127 C 
HETATM   12  C   LIG     1       4.043  -0.073   0.771  1.00  0.00     0.127 C 
ENDBRANCH   8  10
ENDBRANCH   7   8
ENDBRANCH   1   7
TORSDOF 5
