REMARK  2 active torsions:
REMARK  status: ('A' for Active; 'I' for Inactive)
REMARK    1  A    between atoms: C_2  and  C_5 
REMARK    2  A    between atoms: C_2  and  C_3 
ROOT
HETATM    1  C   LIG     1      -0.558   1.611  -0.460  1.00  0.00     0.003 C 
HETATM    2  C   LIG     1      -0.610   0.266   0.279  1.00  0.00     0.033 C 
ENDROOT
BRANCH   2   3
HETATM    3  C   LIG     1       0.732  -0.064   0.980  1.00  0.00     0.003 C 
HETATM    4  C   LIG     1       1.913  -0.281   0.030  1.00  0.00     0.000 C 
ENDBRANCH   2   3
BRANCH   2   5
HETATM    5  C   LIG     1      -1.093  -0.854  -0.665  1.00  0.00     0.182 C 
HETATM    6  O   LIG     1      -1.157  -2.085   0.003  1.00  0.00    -0.221 OA
ENDBRANCH   2   5
TORSDOF 2
