REMARK  5 active torsions:
REMARK  status: ('A' for Active; 'I' for Inactive)
REMARK    1  A    between atoms: C_3  and  N_4 
REMARK       I    between atoms: N_4  and  C_5 
REMARK    2  A    between atoms: C_5  and  C_6 
REMARK    3  A    between atoms: C_6  and  N_7 
REMARK    4  A    between atoms: N_7  and  C_8 
REMARK    5  A    between atoms: N_7  and  C_10 
ROOT
HETATM    1  N   LIG     1      -1.058   0.299  -0.398  1.00  0.00    -0.211 NA
HETATM    2  C   LIG     1       0.011   1.010   0.241  1.00  0.00     0.290 C 
HETATM    3  O   LIG     1      -0.101   1.380   1.441  1.00  0.00    -0.268 OA
ENDROOT
BRANCH   1   4
HETATM    4  C   LIG     1      -2.263  -0.038   0.303  1.00  0.00     0.076 A 
HETATM    5  C   LIG     1      -3.273   0.933   0.488  1.00  0.00    -0.004 A 
HETATM    6  C   LIG     1      -3.112   2.325  -0.059  1.00  0.00     0.033 C 
HETATM    7  C   LIG     1      -4.449   0.584   1.170  1.00  0.00    -0.003 A 
HETATM    8  C   LIG     1      -4.625  -0.711   1.659  1.00  0.00    -0.001 A 
HETATM    9  C   LIG     1      -3.633  -1.673   1.470  1.00  0.00    -0.003 A 
HETATM   10  C   LIG     1      -2.450  -1.350   0.788  1.00  0.00    -0.004 A 
HETATM   11  C   LIG     1      -1.381  -2.393   0.607  1.00  0.00     0.033 C 
ENDBRANCH   1   4
BRANCH   2  12
HETATM   12  C   LIG     1       1.287   1.282  -0.496  1.00  0.00     0.339 C 
BRANCH  12  13
HETATM   13  N   LIG     1       2.351   0.377  -0.010  1.00  0.00     0.147 N 
BRANCH  13  14
HETATM   14  C   LIG     1       3.693   1.007  -0.069  1.00  0.00     0.251 C 
HETATM   15  C   LIG     1       4.191   1.306  -1.490  1.00  0.00     0.037 C 
ENDBRANCH  13  14
BRANCH  13  16
HETATM   16  C   LIG     1       2.278  -0.950  -0.666  1.00  0.00     0.251 C 
HETATM   17  C   LIG     1       3.075  -2.004   0.101  1.00  0.00     0.037 C 
ENDBRANCH  13  16
ENDBRANCH  12  13
ENDBRANCH   2  12
TORSDOF 5
