REMARK  4 active torsions:
REMARK  status: ('A' for Active; 'I' for Inactive)
REMARK    1  A    between atoms: C_2  and  N_4 
REMARK    2  A    between atoms: N_4  and  C_5 
REMARK    3  A    between atoms: C_7  and  N_8 
REMARK    4  A    between atoms: N_8  and  C_9 
ROOT
HETATM    1  C   LIG     1      -1.298  -1.581   0.134  1.00  0.00     0.763 A 
HETATM    2  N   LIG     1      -0.565  -0.438   0.102  1.00  0.00     0.134 NA
HETATM    3  C   LIG     1       0.771  -0.481  -0.136  1.00  0.00     0.763 A 
HETATM    4  N   LIG     1       1.376  -1.680  -0.346  1.00  0.00    -0.028 NA
HETATM    5  C   LIG     1       0.649  -2.824  -0.315  1.00  0.00     0.259 A 
HETATM    6 CL   LIG     1       1.433  -4.365  -0.584  1.00  0.00    -0.040 Cl
HETATM    7  N   LIG     1      -0.685  -2.774  -0.075  1.00  0.00    -0.028 NA
ENDROOT
BRANCH   1   8
HETATM    8  N   LIG     1      -2.713  -1.548   0.385  1.00  0.00    -0.087 NA
BRANCH   8   9
HETATM    9  C   LIG     1      -3.504  -0.334   0.629  1.00  0.00     0.122 C 
HETATM   10  C   LIG     1      -3.048   0.383   1.904  1.00  0.00     0.027 C 
HETATM   11  C   LIG     1      -3.487   0.598  -0.588  1.00  0.00     0.027 C 
ENDBRANCH   8   9
ENDBRANCH   1   8
BRANCH   3  12
HETATM   12  N   LIG     1       1.526   0.737  -0.168  1.00  0.00    -0.087 NA
BRANCH  12  13
HETATM   13  C   LIG     1       2.977   0.763  -0.383  1.00  0.00     0.122 C 
HETATM   14  C   LIG     1       3.705   0.348   0.899  1.00  0.00     0.027 C 
HETATM   15  C   LIG     1       3.423   2.161  -0.822  1.00  0.00     0.027 C 
ENDBRANCH  12  13
ENDBRANCH   3  12
TORSDOF 4
