REMARK  2 active torsions:
REMARK  status: ('A' for Active; 'I' for Inactive)
REMARK    1  A    between atoms: C_13  and  C_14 
REMARK    2  A    between atoms: C_14  and  C_15 
ROOT
HETATM    1  C   LIG     1       0.787  -1.188   2.392  1.00  0.00     0.131 C 
HETATM    2  N   LIG     1       0.975  -0.737   1.010  1.00  0.00    -0.325 N 
HETATM    3  C   LIG     1       2.155   0.006   0.631  1.00  0.00     0.066 A 
HETATM    4  C   LIG     1       2.755   0.921   1.515  1.00  0.00     0.018 A 
HETATM    5  C   LIG     1       3.794   1.747   1.074  1.00  0.00     0.002 A 
HETATM    6  C   LIG     1       4.234   1.677  -0.250  1.00  0.00     0.001 A 
HETATM    7  C   LIG     1       3.652   0.765  -1.134  1.00  0.00     0.008 A 
HETATM    8  C   LIG     1       2.629  -0.081  -0.692  1.00  0.00     0.045 A 
HETATM    9  S   LIG     1       1.988  -1.359  -1.777  1.00  0.00    -0.084 SA
HETATM   10  C   LIG     1       0.279  -1.042  -1.331  1.00  0.00     0.045 A 
HETATM   11  C   LIG     1      -0.068  -0.901   0.025  1.00  0.00     0.066 A 
HETATM   12  C   LIG     1      -1.423  -0.758   0.375  1.00  0.00     0.014 A 
HETATM   13  C   LIG     1      -2.419  -0.757  -0.616  1.00  0.00    -0.010 A 
HETATM   14  C   LIG     1      -2.050  -0.861  -1.966  1.00  0.00    -0.003 A 
HETATM   15  C   LIG     1      -0.707  -1.004  -2.321  1.00  0.00     0.008 A 
ENDROOT
BRANCH  13  16
HETATM   16  C   LIG     1      -3.861  -0.564  -0.236  1.00  0.00     0.124 C 
BRANCH  16  17
HETATM   17  C   LIG     1      -4.175   0.893  -0.117  1.00  0.00     0.190 C 
HETATM   18  O   LIG     1      -4.100   1.714  -1.239  1.00  0.00    -0.647 OA
HETATM   19  O   LIG     1      -4.509   1.379   0.997  1.00  0.00    -0.647 OA
ENDBRANCH  16  17
ENDBRANCH  13  16
TORSDOF 2
