REMARK  3 active torsions:
REMARK  status: ('A' for Active; 'I' for Inactive)
REMARK    1  A    between atoms: C_2  and  C_3 
REMARK    2  A    between atoms: C_2  and  O_5 
REMARK    3  A    between atoms: O_5  and  C_6 
ROOT
HETATM    1  O   LIG     1       0.706  -1.006   0.876  1.00  0.00    -0.259 OA
HETATM    2  C   LIG     1       0.722  -0.244  -0.130  1.00  0.00     0.296 C 
ENDROOT
BRANCH   2   3
HETATM    3  C   LIG     1       1.983   0.351  -0.600  1.00  0.00     0.068 C 
HETATM    4  C   LIG     1       3.150   0.127   0.001  1.00  0.00     0.006 C 
ENDBRANCH   2   3
BRANCH   2   5
HETATM    5  O   LIG     1      -0.459   0.044  -0.822  1.00  0.00    -0.298 OA
BRANCH   5   6
HETATM    6  C   LIG     1      -1.741  -0.441  -0.426  1.00  0.00     0.152 C 
HETATM    7  C   LIG     1      -2.264   0.337   0.776  1.00  0.00     0.035 C 
ENDBRANCH   5   6
ENDBRANCH   2   5
TORSDOF 3
