REMARK  3 active torsions:
REMARK  status: ('A' for Active; 'I' for Inactive)
REMARK    1  A    between atoms: C_2  and  C_3 
REMARK    2  A    between atoms: C_3  and  C_4 
REMARK    3  A    between atoms: C_7  and  O_8 
ROOT
HETATM    1  C   LIG     1       0.850  -0.598   0.621  1.00  0.00    -0.018 A 
HETATM    2  C   LIG     1       0.128  -0.901  -0.544  1.00  0.00    -0.002 A 
HETATM    3  C   LIG     1      -1.196  -0.473  -0.687  1.00  0.00     0.024 A 
HETATM    4  C   LIG     1      -1.818   0.264   0.339  1.00  0.00     0.094 A 
HETATM    5  C   LIG     1      -1.096   0.563   1.500  1.00  0.00     0.024 A 
HETATM    6  C   LIG     1       0.228   0.136   1.643  1.00  0.00    -0.002 A 
ENDROOT
BRANCH   1   7
HETATM    7  C   LIG     1       2.277  -1.054   0.778  1.00  0.00     0.052 C 
BRANCH   7   8
HETATM    8  C   LIG     1       3.223   0.115   0.762  1.00  0.00    -0.021 C 
HETATM    9  C   LIG     1       3.418   0.845  -0.340  1.00  0.00    -0.005 C 
ENDBRANCH   7   8
ENDBRANCH   1   7
BRANCH   4  10
HETATM   10  O   LIG     1      -3.143   0.715   0.243  1.00  0.00    -0.328 OA
HETATM   11  C   LIG     1      -3.992   0.485  -0.876  1.00  0.00     0.181 C 
ENDBRANCH   4  10
TORSDOF 3
