REMARK  1 active torsions:
REMARK  status: ('A' for Active; 'I' for Inactive)
REMARK    1  A    between atoms: C_5  and  C_6 
ROOT
HETATM    1  C   LIG     1       3.706  -0.330  -0.287  1.00  0.00     0.000 C 
HETATM    2  C   LIG     1       2.296   0.207  -0.018  1.00  0.00     0.007 C 
HETATM    3  C   LIG     1       1.573  -0.666   1.028  1.00  0.00     0.001 C 
HETATM    4  C   LIG     1       0.147  -0.154   1.306  1.00  0.00     0.007 C 
HETATM    5  C   LIG     1      -0.705  -0.094   0.014  1.00  0.00     0.058 C 
HETATM    6  C   LIG     1       0.081   0.704  -1.014  1.00  0.00     0.150 C 
HETATM    7  C   LIG     1       1.485   0.274  -1.324  1.00  0.00     0.065 C 
HETATM    8  O   LIG     1      -0.373   1.713  -1.533  1.00  0.00    -0.296 OA
ENDROOT
BRANCH   5   9
HETATM    9  C   LIG     1      -2.145   0.470   0.252  1.00  0.00     0.007 C 
HETATM   10  C   LIG     1      -2.836  -0.153   1.478  1.00  0.00     0.000 C 
HETATM   11  C   LIG     1      -3.037   0.233  -0.982  1.00  0.00     0.000 C 
ENDBRANCH   5   9
TORSDOF 1
