REMARK  5 active torsions:
REMARK  status: ('A' for Active; 'I' for Inactive)
REMARK    1  A    between atoms: C_2  and  C_3 
REMARK    2  A    between atoms: C_3  and  C_4 
REMARK    3  A    between atoms: C_4  and  C_5 
REMARK    4  A    between atoms: C_5  and  C_7 
REMARK    5  A    between atoms: C_7  and  C_8 
ROOT
HETATM    1  C   LIG     1      -0.791  -0.075  -0.756  1.00  0.00     0.158 C 
HETATM    2  O   LIG     1      -0.841  -0.161  -1.974  1.00  0.00    -0.296 OA
ENDROOT
BRANCH   1   3
HETATM    3  C   LIG     1       0.350  -0.722  -0.015  1.00  0.00     0.065 C 
BRANCH   3   4
HETATM    4  C   LIG     1       1.677  -0.033  -0.350  1.00  0.00     0.008 C 
BRANCH   4   5
HETATM    5  C   LIG     1       2.840  -0.679   0.411  1.00  0.00     0.000 C 
HETATM    6  C   LIG     1       4.164   0.004   0.079  1.00  0.00     0.000 C 
ENDBRANCH   4   5
ENDBRANCH   3   4
ENDBRANCH   1   3
BRANCH   1   7
HETATM    7  C   LIG     1      -1.870   0.682  -0.023  1.00  0.00     0.129 C 
BRANCH   7   8
HETATM    8  C   LIG     1      -3.203  -0.024  -0.056  1.00  0.00     0.158 C 
HETATM    9  C   LIG     1      -4.411   0.626   0.547  1.00  0.00     0.073 C 
HETATM   10  O   LIG     1      -3.316  -1.133  -0.560  1.00  0.00    -0.296 OA
ENDBRANCH   7   8
ENDBRANCH   1   7
TORSDOF 5
