REMARK  0 active torsions:
REMARK  status: ('A' for Active; 'I' for Inactive)
ROOT
HETATM    1  O   LIG     1      -1.549   1.541   0.423  1.00  0.00    -0.269 OA
HETATM    2  C   LIG     1      -0.705   0.647   0.150  1.00  0.00     0.268 A 
HETATM    3  C   LIG     1      -1.060  -0.800   0.111  1.00  0.00     0.154 A 
HETATM    4  S   LIG     1       0.445  -1.723  -0.393  1.00  0.00    -0.074 SA
HETATM    5  N   LIG     1       0.649   0.961  -0.115  1.00  0.00    -0.194 NA
HETATM    6  C   LIG     1       1.395  -0.208  -0.391  1.00  0.00     0.165 A 
HETATM    7  S   LIG     1       3.022  -0.227  -0.247  1.00  0.00    -0.051 SA
ENDROOT
TORSDOF 0
