REMARK  0 active torsions:
REMARK  status: ('A' for Active; 'I' for Inactive)
ROOT
HETATM    1  S   LIG     1       2.713  -1.206  -0.037  1.00  0.00    -0.037 SA
HETATM    2  C   LIG     1       1.217  -0.534  -0.017  1.00  0.00     0.224 A 
HETATM    3  N   LIG     1       1.080   0.821  -0.009  1.00  0.00    -0.216 NA
HETATM    4  C   LIG     1      -0.152   1.395   0.009  1.00  0.00     0.106 A 
HETATM    5  C   LIG     1      -1.294   0.597   0.018  1.00  0.00     0.083 A 
HETATM    6  N   LIG     1       0.111  -1.332  -0.008  1.00  0.00    -0.179 NA
HETATM    7  C   LIG     1      -1.137  -0.789   0.009  1.00  0.00     0.283 A 
HETATM    8  O   LIG     1      -2.151  -1.537   0.018  1.00  0.00    -0.265 OA
ENDROOT
TORSDOF 0
