REMARK  2 active torsions:
REMARK  status: ('A' for Active; 'I' for Inactive)
REMARK    1  A    between atoms: C_2  and  C_3 
REMARK    2  A    between atoms: C_3  and  C_4 
ROOT
HETATM    1  O   LIG     1       1.761  -0.753  -0.911  1.00  0.00    -0.647 OA
HETATM    2  C   LIG     1       1.218   0.306  -0.189  1.00  0.00     0.186 C 
HETATM    3  O   LIG     1       1.701   1.461  -0.325  1.00  0.00    -0.647 OA
ENDROOT
BRANCH   2   4
HETATM    4  C   LIG     1       0.051   0.084   0.727  1.00  0.00     0.109 C 
BRANCH   4   5
HETATM    5  C   LIG     1      -1.253  -0.062  -0.058  1.00  0.00     0.074 C 
HETATM    6  I   LIG     1      -1.838   1.783  -0.976  1.00  0.00    -0.074 I 
ENDBRANCH   4   5
ENDBRANCH   2   4
TORSDOF 2
