REMARK  2 active torsions:
REMARK  status: ('A' for Active; 'I' for Inactive)
REMARK    1  A    between atoms: C_2  and  O_3 
REMARK    2  A    between atoms: O_3  and  C_4 
ROOT
HETATM    1  C   LIG     1       2.272   0.236  -0.948  1.00  0.00     0.106 C 
HETATM    2  C   LIG     1       1.112  -0.205  -0.123  1.00  0.00     0.272 C 
HETATM    3  O   LIG     1       1.289  -0.505   1.089  1.00  0.00    -0.264 OA
ENDROOT
BRANCH   2   4
HETATM    4  O   LIG     1      -0.158  -0.289  -0.705  1.00  0.00    -0.302 OA
BRANCH   4   5
HETATM    5  C   LIG     1      -1.331  -0.658   0.018  1.00  0.00     0.152 C 
HETATM    6  C   LIG     1      -1.812   0.497   0.888  1.00  0.00     0.035 C 
ENDBRANCH   4   5
ENDBRANCH   2   4
TORSDOF 2
