REMARK  0 active torsions:
REMARK  status: ('A' for Active; 'I' for Inactive)
ROOT
HETATM    1  C   LIG     1      -0.816  -0.878  -0.459  1.00  0.00     0.005 C 
HETATM    2  C   LIG     1       0.517  -1.207   0.215  1.00  0.00     0.032 C 
HETATM    3  C   LIG     1       1.555  -0.086  -0.029  1.00  0.00     0.142 C 
HETATM    4  O   LIG     1       0.991   1.091  -0.587  1.00  0.00    -0.354 OA
HETATM    5  C   LIG     1      -0.137   1.492   0.166  1.00  0.00     0.142 C 
HETATM    6  C   LIG     1      -1.309   0.514  -0.037  1.00  0.00     0.032 C 
ENDROOT
TORSDOF 0
