REMARK  6 active torsions:
REMARK  status: ('A' for Active; 'I' for Inactive)
REMARK    1  A    between atoms: C_2  and  O_3 
REMARK    2  A    between atoms: O_3  and  C_4 
REMARK    3  A    between atoms: C_4  and  C_5 
REMARK    4  A    between atoms: C_5  and  C_6 
REMARK    5  A    between atoms: C_6  and  C_7 
REMARK    6  A    between atoms: C_7  and  C_8 
ROOT
HETATM    1  C   LIG     1       1.551  -1.325  -0.098  1.00  0.00     0.152 C 
ENDROOT
BRANCH   1   2
HETATM    2  O   LIG     1       2.894  -0.867   0.042  1.00  0.00    -0.302 OA
BRANCH   2   3
HETATM    3  C   LIG     1       3.546  -0.087  -0.919  1.00  0.00     0.272 C 
HETATM    4  C   LIG     1       4.935   0.390  -0.663  1.00  0.00     0.106 C 
HETATM    5  O   LIG     1       2.976   0.214  -2.003  1.00  0.00    -0.264 OA
ENDBRANCH   2   3
ENDBRANCH   1   2
BRANCH   1   6
HETATM    6  C   LIG     1       0.564  -0.185   0.170  1.00  0.00     0.033 C 
BRANCH   6   7
HETATM    7  C   LIG     1      -0.885  -0.676   0.072  1.00  0.00     0.003 C 
BRANCH   7   8
HETATM    8  C   LIG     1      -1.872   0.467   0.341  1.00  0.00     0.000 C 
BRANCH   8   9
HETATM    9  C   LIG     1      -3.321  -0.024   0.243  1.00  0.00     0.000 C 
HETATM   10  C   LIG     1      -4.307   1.111   0.509  1.00  0.00     0.000 C 
ENDBRANCH   8   9
ENDBRANCH   7   8
ENDBRANCH   6   7
ENDBRANCH   1   6
TORSDOF 6
