REMARK  0 active torsions:
REMARK  status: ('A' for Active; 'I' for Inactive)
ROOT
HETATM    1  C   LIG     1      -0.568   1.218  -0.040  1.00  0.00    -0.030 A 
HETATM    2  C   LIG     1       0.747   1.117   0.027  1.00  0.00    -0.030 A 
HETATM    3  C   LIG     1       1.205  -0.295   0.064  1.00  0.00     0.026 A 
HETATM    4  C   LIG     1      -0.086  -1.118   0.006  1.00  0.00     0.009 A 
HETATM    5  C   LIG     1      -1.236  -0.108  -0.061  1.00  0.00     0.026 A 
ENDROOT
TORSDOF 0
