REMARK  4 active torsions:
REMARK  status: ('A' for Active; 'I' for Inactive)
REMARK    1  A    between atoms: C_2  and  C_3 
REMARK    2  A    between atoms: C_3  and  C_4 
REMARK    3  A    between atoms: C_4  and  C_5 
REMARK    4  A    between atoms: C_5  and  C_6 
ROOT
HETATM    1  C   LIG     1       0.729   0.143  -0.176  1.00  0.00     0.011 C 
ENDROOT
BRANCH   1   2
HETATM    2  C   LIG     1      -0.734  -0.304  -0.063  1.00  0.00     0.001 C 
BRANCH   2   3
HETATM    3  C   LIG     1      -1.675   0.727  -0.698  1.00  0.00     0.000 C 
HETATM    4  C   LIG     1      -3.131   0.285  -0.587  1.00  0.00     0.000 C 
ENDBRANCH   2   3
ENDBRANCH   1   2
BRANCH   1   5
HETATM    5  C   LIG     1       1.670  -0.888   0.459  1.00  0.00     0.098 C 
BRANCH   5   6
HETATM    6  C   LIG     1       3.133  -0.524   0.391  1.00  0.00     0.185 C 
HETATM    7  O   LIG     1       3.600   0.651  -0.200  1.00  0.00    -0.647 OA
HETATM    8  O   LIG     1       3.971  -1.319   0.890  1.00  0.00    -0.647 OA
ENDBRANCH   5   6
ENDBRANCH   1   5
TORSDOF 4
