REMARK  4 active torsions:
REMARK  status: ('A' for Active; 'I' for Inactive)
REMARK    1  A    between atoms: C_2  and  C_3 
REMARK    2  A    between atoms: C_3  and  N_4 
REMARK    3  A    between atoms: N_4  and  C_5 
REMARK    4  A    between atoms: C_5  and  C_6 
ROOT
HETATM    1  N   LIG     1      -0.140   0.188   0.623  1.00  0.00     0.339 N 
ENDROOT
BRANCH   1   2
HETATM    2  C   LIG     1       0.832  -0.851   1.001  1.00  0.00     0.290 C 
BRANCH   2   3
HETATM    3  C   LIG     1       2.066  -0.925   0.079  1.00  0.00     0.038 C 
HETATM    4  C   LIG     1       2.900   0.355   0.090  1.00  0.00     0.002 C 
ENDBRANCH   2   3
ENDBRANCH   1   2
BRANCH   1   5
HETATM    5  C   LIG     1      -0.751  -0.056  -0.691  1.00  0.00     0.290 C 
BRANCH   5   6
HETATM    6  C   LIG     1      -2.020   0.787  -0.852  1.00  0.00     0.038 C 
HETATM    7  C   LIG     1      -3.114   0.367   0.128  1.00  0.00     0.002 C 
ENDBRANCH   5   6
ENDBRANCH   1   5
TORSDOF 4
