REMARK  6 active torsions:
REMARK  status: ('A' for Active; 'I' for Inactive)
REMARK    1  A    between atoms: C_2  and  C_3 
REMARK    2  A    between atoms: C_3  and  C_4 
REMARK    3  A    between atoms: C_4  and  O_5 
REMARK    4  A    between atoms: O_5  and  C_6 
REMARK    5  A    between atoms: C_6  and  C_7 
REMARK    6  A    between atoms: C_7  and  C_8 
ROOT
HETATM    1  O   LIG     1       0.281   0.449   0.487  1.00  0.00    -0.354 OA
ENDROOT
BRANCH   1   2
HETATM    2  C   LIG     1       0.755  -0.380  -0.556  1.00  0.00     0.142 C 
BRANCH   2   3
HETATM    3  C   LIG     1       2.150  -0.900  -0.206  1.00  0.00     0.032 C 
BRANCH   3   4
HETATM    4  C   LIG     1       3.177   0.237  -0.124  1.00  0.00     0.003 C 
HETATM    5  C   LIG     1       4.568  -0.301   0.202  1.00  0.00     0.000 C 
ENDBRANCH   3   4
ENDBRANCH   2   3
ENDBRANCH   1   2
BRANCH   1   6
HETATM    6  C   LIG     1      -1.061   0.830   0.249  1.00  0.00     0.142 C 
BRANCH   6   7
HETATM    7  C   LIG     1      -2.016  -0.106   1.001  1.00  0.00     0.032 C 
BRANCH   7   8
HETATM    8  C   LIG     1      -3.474   0.378   0.966  1.00  0.00     0.003 C 
HETATM    9  C   LIG     1      -4.110   0.234  -0.416  1.00  0.00     0.000 C 
ENDBRANCH   7   8
ENDBRANCH   6   7
ENDBRANCH   1   6
TORSDOF 6
