REMARK  2 active torsions:
REMARK  status: ('A' for Active; 'I' for Inactive)
REMARK    1  A    between atoms: C_2  and  C_3 
REMARK    2  A    between atoms: C_3  and  C_4 
ROOT
HETATM    1  C   LIG     1      -0.097  -0.345  -0.558  1.00  0.00     0.035 C 
ENDROOT
BRANCH   1   2
HETATM    2  C   LIG     1      -1.115   0.652   0.007  1.00  0.00     0.096 C 
HETATM    3 CL   LIG     1      -1.841   0.052   1.523  1.00  0.00    -0.114 Cl
ENDBRANCH   1   2
BRANCH   1   4
HETATM    4  C   LIG     1       1.168  -0.462   0.299  1.00  0.00     0.096 C 
HETATM    5 CL   LIG     1       2.146   1.028   0.222  1.00  0.00    -0.114 Cl
ENDBRANCH   1   4
TORSDOF 2
