REMARK  4 active torsions:
REMARK  status: ('A' for Active; 'I' for Inactive)
REMARK    1  A    between atoms: C_2  and  C_3 
REMARK    2  A    between atoms: C_3  and  C_4 
REMARK    3  A    between atoms: C_4  and  C_5 
REMARK    4  A    between atoms: C_5  and  C_6 
ROOT
HETATM    1  C   LIG     1      -0.017   0.177  -0.333  1.00  0.00     0.000 C 
ENDROOT
BRANCH   1   2
HETATM    2  C   LIG     1       1.161  -0.668  -0.841  1.00  0.00     0.000 C 
BRANCH   2   3
HETATM    3  C   LIG     1       2.515   0.033  -0.654  1.00  0.00     0.000 C 
HETATM    4  C   LIG     1       2.945   0.110   0.811  1.00  0.00     0.000 C 
ENDBRANCH   2   3
ENDBRANCH   1   2
BRANCH   1   5
HETATM    5  C   LIG     1      -1.356  -0.509  -0.640  1.00  0.00     0.000 C 
BRANCH   5   6
HETATM    6  C   LIG     1      -2.566   0.353  -0.247  1.00  0.00     0.000 C 
HETATM    7  C   LIG     1      -2.744   0.469   1.266  1.00  0.00     0.000 C 
ENDBRANCH   5   6
ENDBRANCH   1   5
TORSDOF 4
