REMARK  4 active torsions:
REMARK  status: ('A' for Active; 'I' for Inactive)
REMARK    1  A    between atoms: O_2  and  C_3 
REMARK    2  A    between atoms: C_6  and  O_7 
REMARK    3  A    between atoms: O_7  and  C_8 
REMARK    4  A    between atoms: C_11  and  N_14 
REMARK       I    between atoms: N_14  and  C_15 
REMARK       I    between atoms: C_15  and  N_16 
ROOT
HETATM    1  C   LIG     1       0.528  -1.289   0.514  1.00  0.00     0.100 A 
HETATM    2  C   LIG     1      -0.548  -1.484   1.387  1.00  0.00     0.026 A 
HETATM    3  C   LIG     1      -1.815  -0.985   1.072  1.00  0.00     0.021 A 
HETATM    4  C   LIG     1      -2.024  -0.280  -0.126  1.00  0.00     0.086 A 
HETATM    5  C   LIG     1      -0.954  -0.122  -1.019  1.00  0.00     0.021 A 
HETATM    6  C   LIG     1       0.313  -0.620  -0.703  1.00  0.00     0.026 A 
ENDROOT
BRANCH   1   7
HETATM    7  O   LIG     1       1.781  -1.817   0.861  1.00  0.00    -0.307 OA
BRANCH   7   8
HETATM    8  C   LIG     1       3.022  -1.282   0.483  1.00  0.00     0.100 A 
HETATM    9  C   LIG     1       3.212   0.099   0.299  1.00  0.00     0.027 A 
HETATM   10  C   LIG     1       4.468   0.596  -0.062  1.00  0.00     0.026 A 
HETATM   11  C   LIG     1       5.557  -0.281  -0.232  1.00  0.00     0.094 A 
HETATM   12  C   LIG     1       5.365  -1.652  -0.029  1.00  0.00     0.026 A 
HETATM   13  C   LIG     1       4.109  -2.148   0.333  1.00  0.00     0.027 A 
BRANCH  11  14
HETATM   14  O   LIG     1       6.835   0.168  -0.595  1.00  0.00    -0.328 OA
HETATM   15  C   LIG     1       7.171   1.531  -0.831  1.00  0.00     0.181 C 
ENDBRANCH  11  14
ENDBRANCH   7   8
ENDBRANCH   1   7
BRANCH   4  16
HETATM   16  N   LIG     1      -3.324   0.222  -0.485  1.00  0.00    -0.193 NA
HETATM   17  C   LIG     1      -4.287   0.698   0.472  1.00  0.00     0.346 C 
HETATM   18  N   LIG     1      -5.680   0.834   0.118  1.00  0.00    -0.297 N 
HETATM   19  O   LIG     1      -3.905   1.028   1.629  1.00  0.00    -0.245 OA
HETATM   20  C   LIG     1      -6.614   1.407   1.093  1.00  0.00     0.130 C 
HETATM   21  C   LIG     1      -6.168   0.368  -1.183  1.00  0.00     0.130 C 
ENDBRANCH   4  16
TORSDOF 4
