REMARK  10 active torsions:
REMARK  status: ('A' for Active; 'I' for Inactive)
REMARK    1  A    between atoms: C_2  and  C_3 
REMARK    2  A    between atoms: C_3  and  C_4 
REMARK    3  A    between atoms: C_4  and  C_5 
REMARK    4  A    between atoms: C_5  and  C_6 
REMARK    5  A    between atoms: C_6  and  C_7 
REMARK    6  A    between atoms: C_7  and  C_8 
REMARK    7  A    between atoms: C_8  and  C_9 
REMARK    8  A    between atoms: C_9  and  C_10 
REMARK    9  A    between atoms: C_10  and  C_11 
REMARK   10  A    between atoms: C_11  and  C_12 
ROOT
HETATM    1  C   LIG     1       0.176  -1.174   0.256  1.00  0.00     0.000 C 
ENDROOT
BRANCH   1   2
HETATM    2  C   LIG     1      -1.041  -1.397  -0.655  1.00  0.00     0.000 C 
BRANCH   2   3
HETATM    3  C   LIG     1      -2.375  -1.408   0.115  1.00  0.00     0.000 C 
BRANCH   3   4
HETATM    4  C   LIG     1      -2.697  -0.115   0.885  1.00  0.00     0.000 C 
BRANCH   4   5
HETATM    5  C   LIG     1      -2.860   1.106  -0.035  1.00  0.00     0.000 C 
BRANCH   5   6
HETATM    6  C   LIG     1      -3.232   2.382   0.737  1.00  0.00     0.000 C 
HETATM    7  C   LIG     1      -4.663   2.357   1.275  1.00  0.00     0.000 C 
ENDBRANCH   5   6
ENDBRANCH   4   5
ENDBRANCH   3   4
ENDBRANCH   2   3
ENDBRANCH   1   2
BRANCH   1   8
HETATM    8  C   LIG     1       1.486  -1.379  -0.515  1.00  0.00     0.000 C 
BRANCH   8   9
HETATM    9  C   LIG     1       2.699  -1.080   0.377  1.00  0.00     0.001 C 
BRANCH   9  10
HETATM   10  C   LIG     1       4.039  -1.419  -0.302  1.00  0.00     0.011 C 
BRANCH  10  11
HETATM   11  C   LIG     1       4.369  -0.537  -1.519  1.00  0.00     0.098 C 
BRANCH  11  12
HETATM   12  C   LIG     1       4.465   0.915  -1.160  1.00  0.00     0.185 C 
HETATM   13  O   LIG     1       3.568   1.827  -1.710  1.00  0.00    -0.647 OA
HETATM   14  O   LIG     1       5.357   1.312  -0.364  1.00  0.00    -0.647 OA
ENDBRANCH  11  12
ENDBRANCH  10  11
ENDBRANCH   9  10
ENDBRANCH   8   9
ENDBRANCH   1   8
TORSDOF 10
