REMARK  7 active torsions:
REMARK  status: ('A' for Active; 'I' for Inactive)
REMARK    1  A    between atoms: C_2  and  C_3 
REMARK    2  A    between atoms: C_3  and  C_4 
REMARK    3  A    between atoms: C_4  and  C_5 
REMARK    4  A    between atoms: C_5  and  C_6 
REMARK    5  A    between atoms: C_6  and  C_7 
REMARK    6  A    between atoms: C_7  and  C_8 
REMARK    7  A    between atoms: C_8  and  C_9 
ROOT
HETATM    1  C   LIG     1      -0.524  -1.079   0.052  1.00  0.00     0.000 C 
ENDROOT
BRANCH   1   2
HETATM    2  C   LIG     1      -1.092   0.026  -0.857  1.00  0.00     0.000 C 
BRANCH   2   3
HETATM    3  C   LIG     1      -2.612   0.192  -0.704  1.00  0.00     0.000 C 
BRANCH   3   4
HETATM    4  C   LIG     1      -3.007   0.783   0.657  1.00  0.00     0.000 C 
HETATM    5  C   LIG     1      -4.508   1.054   0.724  1.00  0.00     0.000 C 
ENDBRANCH   3   4
ENDBRANCH   2   3
ENDBRANCH   1   2
BRANCH   1   6
HETATM    6  C   LIG     1       0.932  -1.433  -0.289  1.00  0.00     0.000 C 
BRANCH   6   7
HETATM    7  C   LIG     1       1.914  -0.309   0.074  1.00  0.00     0.003 C 
BRANCH   7   8
HETATM    8  C   LIG     1       3.365  -0.750  -0.165  1.00  0.00     0.036 C 
BRANCH   8   9
HETATM    9  C   LIG     1       4.368   0.334   0.240  1.00  0.00     0.182 C 
HETATM   10  O   LIG     1       4.270   1.444  -0.612  1.00  0.00    -0.221 OA
ENDBRANCH   8   9
ENDBRANCH   7   8
ENDBRANCH   6   7
ENDBRANCH   1   6
TORSDOF 7
