REMARK  9 active torsions:
REMARK  status: ('A' for Active; 'I' for Inactive)
REMARK    1  A    between atoms: C_2  and  C_3 
REMARK    2  A    between atoms: C_2  and  O_10 
REMARK    3  A    between atoms: O_10  and  C_11 
REMARK    4  A    between atoms: C_11  and  C_12 
REMARK    5  A    between atoms: C_12  and  C_13 
REMARK    6  A    between atoms: C_13  and  C_14 
REMARK    7  A    between atoms: C_14  and  C_15 
REMARK    8  A    between atoms: C_15  and  C_16 
REMARK    9  A    between atoms: C_16  and  C_17 
ROOT
HETATM    1  O   LIG     1      -2.763  -0.160  -2.882  1.00  0.00    -0.259 OA
HETATM    2  C   LIG     1      -2.655   0.138  -1.660  1.00  0.00     0.296 C 
ENDROOT
BRANCH   2   3
HETATM    3  C   LIG     1      -3.863   0.413  -0.852  1.00  0.00     0.063 A 
HETATM    4  C   LIG     1      -5.144   0.358  -1.432  1.00  0.00     0.006 A 
HETATM    5  C   LIG     1      -6.282   0.618  -0.662  1.00  0.00     0.014 A 
HETATM    6  C   LIG     1      -6.158   0.935   0.697  1.00  0.00     0.070 A 
HETATM    7  C   LIG     1      -4.886   0.991   1.280  1.00  0.00     0.014 A 
HETATM    8  N   LIG     1      -7.323   1.200   1.483  1.00  0.00    -0.101 NA
HETATM    9  C   LIG     1      -3.746   0.732   0.512  1.00  0.00     0.006 A 
ENDBRANCH   2   3
BRANCH   2  10
HETATM   10  O   LIG     1      -1.391   0.209  -1.066  1.00  0.00    -0.298 OA
BRANCH  10  11
HETATM   11  C   LIG     1      -0.187  -0.058  -1.778  1.00  0.00     0.152 C 
BRANCH  11  12
HETATM   12  C   LIG     1       1.018   0.103  -0.851  1.00  0.00     0.033 C 
BRANCH  12  13
HETATM   13  C   LIG     1       1.017  -0.952   0.266  1.00  0.00     0.003 C 
BRANCH  13  14
HETATM   14  C   LIG     1       2.131  -0.727   1.302  1.00  0.00     0.000 C 
BRANCH  14  15
HETATM   15  C   LIG     1       3.552  -0.933   0.737  1.00  0.00     0.000 C 
BRANCH  15  16
HETATM   16  C   LIG     1       4.265   0.402   0.460  1.00  0.00     0.000 C 
BRANCH  16  17
HETATM   17  C   LIG     1       5.594   0.219  -0.289  1.00  0.00     0.000 C 
HETATM   18  C   LIG     1       6.668  -0.451   0.568  1.00  0.00     0.000 C 
ENDBRANCH  16  17
ENDBRANCH  15  16
ENDBRANCH  14  15
ENDBRANCH  13  14
ENDBRANCH  12  13
ENDBRANCH  11  12
ENDBRANCH  10  11
ENDBRANCH   2  10
TORSDOF 9
