REMARK  8 active torsions:
REMARK  status: ('A' for Active; 'I' for Inactive)
REMARK    1  A    between atoms: C_2  and  C_3 
REMARK    2  A    between atoms: C_3  and  C_4 
REMARK    3  A    between atoms: C_4  and  C_5 
REMARK    4  A    between atoms: C_5  and  C_6 
REMARK    5  A    between atoms: C_6  and  C_7 
REMARK    6  A    between atoms: C_7  and  O_8 
REMARK    7  A    between atoms: O_8  and  C_9 
REMARK    8  A    between atoms: C_9  and  C_10 
ROOT
HETATM    1  C   LIG     1       2.082  -0.820  -0.172  1.00  0.00     0.296 C 
HETATM    2  O   LIG     1       1.495  -1.377  -1.142  1.00  0.00    -0.259 OA
ENDROOT
BRANCH   1   3
HETATM    3  O   LIG     1       1.387  -0.567   1.018  1.00  0.00    -0.298 OA
BRANCH   3   4
HETATM    4  C   LIG     1      -0.005  -0.823   1.188  1.00  0.00     0.152 C 
BRANCH   4   5
HETATM    5  C   LIG     1      -0.842   0.215   0.434  1.00  0.00     0.033 C 
BRANCH   5   6
HETATM    6  C   LIG     1      -2.341  -0.015   0.660  1.00  0.00     0.003 C 
BRANCH   6   7
HETATM    7  C   LIG     1      -3.178   1.021  -0.106  1.00  0.00     0.000 C 
BRANCH   7   8
HETATM    8  C   LIG     1      -4.680   0.909   0.195  1.00  0.00     0.000 C 
BRANCH   8   9
HETATM    9  C   LIG     1      -5.315  -0.346  -0.422  1.00  0.00     0.000 C 
HETATM   10  C   LIG     1      -6.827  -0.354  -0.217  1.00  0.00     0.000 C 
ENDBRANCH   8   9
ENDBRANCH   7   8
ENDBRANCH   6   7
ENDBRANCH   5   6
ENDBRANCH   4   5
ENDBRANCH   3   4
ENDBRANCH   1   3
BRANCH   1  11
HETATM   11  C   LIG     1       3.508  -0.444  -0.286  1.00  0.00     0.063 A 
HETATM   12  C   LIG     1       4.166   0.176   0.791  1.00  0.00     0.006 A 
HETATM   13  C   LIG     1       5.514   0.535   0.686  1.00  0.00     0.014 A 
HETATM   14  C   LIG     1       6.223   0.279  -0.494  1.00  0.00     0.070 A 
HETATM   15  C   LIG     1       5.574  -0.338  -1.571  1.00  0.00     0.014 A 
HETATM   16  N   LIG     1       7.602   0.646  -0.599  1.00  0.00    -0.101 NA
HETATM   17  C   LIG     1       4.226  -0.697  -1.469  1.00  0.00     0.006 A 
ENDBRANCH   1  11
TORSDOF 8
