REMARK  4 active torsions:
REMARK  status: ('A' for Active; 'I' for Inactive)
REMARK    1  A    between atoms: C_2  and  C_5 
REMARK    2  A    between atoms: C_2  and  O_3 
REMARK    3  A    between atoms: C_5  and  C_7 
REMARK    4  A    between atoms: C_7  and  C_8 
ROOT
HETATM    1  C   LIG     1      -0.950  -0.475  -0.761  1.00  0.00    -0.020 A 
HETATM    2  C   LIG     1      -2.069  -1.245  -0.401  1.00  0.00    -0.003 A 
HETATM    3  C   LIG     1      -3.186  -0.637   0.180  1.00  0.00     0.011 A 
HETATM    4  C   LIG     1      -3.199   0.744   0.401  1.00  0.00     0.058 A 
HETATM    5 CL   LIG     1      -4.601   1.504   1.131  1.00  0.00    -0.082 Cl
HETATM    6  C   LIG     1      -2.094   1.518   0.035  1.00  0.00     0.011 A 
HETATM    7  C   LIG     1      -0.975   0.914  -0.547  1.00  0.00    -0.003 A 
ENDROOT
BRANCH   1   8
HETATM    8  C   LIG     1       0.255  -1.127  -1.397  1.00  0.00     0.053 C 
BRANCH   8   9
HETATM    9  C   LIG     1       1.328  -1.548  -0.376  1.00  0.00     0.170 C 
HETATM   10 CL   LIG     1       0.715  -2.812   0.735  1.00  0.00    -0.104 Cl
BRANCH   9  11
HETATM   11  C   LIG     1       1.871  -0.372   0.384  1.00  0.00     0.287 C 
HETATM   12  O   LIG     1       1.361  -0.037   1.490  1.00  0.00    -0.263 OA
BRANCH  11  13
HETATM   13  O   LIG     1       2.906   0.382  -0.176  1.00  0.00    -0.298 OA
HETATM   14  C   LIG     1       3.435   1.542   0.454  1.00  0.00     0.184 C 
ENDBRANCH  11  13
ENDBRANCH   9  11
ENDBRANCH   8   9
ENDBRANCH   1   8
TORSDOF 4
