REMARK  1 active torsions:
REMARK  status: ('A' for Active; 'I' for Inactive)
REMARK    1  A    between atoms: C_20  and  C_21 
ROOT
HETATM    1  O   LIG     1       6.067   0.248   1.326  1.00  0.00    -0.223 OA
HETATM    2  C   LIG     1       4.670   0.241   1.202  1.00  0.00     0.156 C 
HETATM    3  C   LIG     1       4.273   1.058  -0.035  1.00  0.00     0.055 C 
HETATM    4  C   LIG     1       4.162  -1.210   1.097  1.00  0.00     0.034 C 
HETATM    5  C   LIG     1       2.637  -1.276   0.873  1.00  0.00     0.006 C 
HETATM    6  C   LIG     1       2.153  -0.435  -0.347  1.00  0.00     0.015 C 
HETATM    7  C   LIG     1       2.651  -1.091  -1.664  1.00  0.00     0.004 C 
HETATM    8  C   LIG     1       2.775   0.974  -0.231  1.00  0.00    -0.046 C 
HETATM    9  C   LIG     1       2.035   2.110  -0.119  1.00  0.00    -0.035 C 
HETATM   10  C   LIG     1       0.528   2.115  -0.019  1.00  0.00     0.025 C 
HETATM   11  C   LIG     1       0.055   0.770   0.536  1.00  0.00     0.005 C 
HETATM   12  C   LIG     1       0.582  -0.349  -0.402  1.00  0.00     0.004 C 
HETATM   13  C   LIG     1      -0.197  -1.670  -0.174  1.00  0.00     0.000 C 
HETATM   14  C   LIG     1      -1.718  -1.527  -0.490  1.00  0.00     0.000 C 
HETATM   15  C   LIG     1      -2.295  -0.087  -0.263  1.00  0.00     0.006 C 
HETATM   16  C   LIG     1      -2.354   0.711  -1.607  1.00  0.00     0.000 C 
HETATM   17  C   LIG     1      -1.466   0.615   0.823  1.00  0.00     0.001 C 
HETATM   18  C   LIG     1      -2.293   1.810   1.271  1.00  0.00     0.001 C 
HETATM   19  C   LIG     1      -3.748   1.326   1.132  1.00  0.00     0.007 C 
HETATM   20  C   LIG     1      -3.698  -0.050   0.408  1.00  0.00     0.058 C 
ENDROOT
BRANCH  20  21
HETATM   21  C   LIG     1      -4.870  -0.310  -0.529  1.00  0.00     0.151 C 
HETATM   22  C   LIG     1      -5.141  -1.688  -1.056  1.00  0.00     0.072 C 
HETATM   23  O   LIG     1      -5.615   0.599  -0.863  1.00  0.00    -0.296 OA
ENDBRANCH  20  21
TORSDOF 1
