REMARK  2 active torsions:
REMARK  status: ('A' for Active; 'I' for Inactive)
REMARK    1  A    between atoms: C_2  and  C_3 
REMARK    2  A    between atoms: C_9  and  C_10 
ROOT
HETATM    1  C   LIG     1      -0.900  -0.101  -0.482  1.00  0.00     0.127 C 
HETATM    2  C   LIG     1      -0.246   1.185  -1.033  1.00  0.00     0.126 C 
HETATM    3  O   LIG     1       0.878   0.717  -1.720  1.00  0.00    -0.358 OA
HETATM    4  C   LIG     1       1.456   0.037  -0.645  1.00  0.00     0.126 C 
HETATM    5  C   LIG     1       1.609   1.145   0.410  1.00  0.00     0.033 C 
HETATM    6  C   LIG     1       0.368   1.981   0.124  1.00  0.00     0.033 C 
HETATM    7  C   LIG     1       0.354  -0.971  -0.263  1.00  0.00     0.127 C 
ENDROOT
BRANCH   1   8
HETATM    8  C   LIG     1      -1.850  -0.729  -1.474  1.00  0.00     0.188 C 
HETATM    9  O   LIG     1      -1.584  -0.724  -2.706  1.00  0.00    -0.647 OA
HETATM   10  O   LIG     1      -3.005  -1.368  -1.032  1.00  0.00    -0.647 OA
ENDBRANCH   1   8
BRANCH   7  11
HETATM   11  C   LIG     1       0.510  -1.561   1.118  1.00  0.00     0.188 C 
HETATM   12  O   LIG     1      -0.474  -1.395   2.088  1.00  0.00    -0.647 OA
HETATM   13  O   LIG     1       1.544  -2.228   1.391  1.00  0.00    -0.647 OA
ENDBRANCH   7  11
TORSDOF 2
