REMARK  3 active torsions:
REMARK  status: ('A' for Active; 'I' for Inactive)
REMARK    1  A    between atoms: C_2  and  C_3 
REMARK    2  A    between atoms: C_3  and  C_4 
REMARK    3  A    between atoms: C_4  and  C_5 
ROOT
HETATM    1  C   LIG     1       0.121  -0.421  -0.327  1.00  0.00     0.026 C 
ENDROOT
BRANCH   1   2
HETATM    2  C   LIG     1      -0.864   0.741  -0.139  1.00  0.00     0.004 C 
BRANCH   2   3
HETATM    3  C   LIG     1      -1.908   0.461   0.953  1.00  0.00     0.000 C 
HETATM    4  C   LIG     1      -2.919  -0.610   0.543  1.00  0.00     0.000 C 
ENDBRANCH   2   3
ENDBRANCH   1   2
BRANCH   1   5
HETATM    5  C   LIG     1       1.178  -0.045  -1.337  1.00  0.00    -0.030 C 
HETATM    6  C   LIG     1       2.490   0.072  -1.064  1.00  0.00    -0.030 C 
HETATM    7  C   LIG     1       3.085  -0.146   0.296  1.00  0.00     0.030 C 
ENDBRANCH   1   5
TORSDOF 3
