REMARK  0 active torsions:
REMARK  status: ('A' for Active; 'I' for Inactive)
ROOT
HETATM    1  O   LIG     1       1.938  -2.135  -0.414  1.00  0.00    -0.189 OA
HETATM    2  C   LIG     1       1.436  -0.860  -0.158  1.00  0.00     0.148 A 
HETATM    3  C   LIG     1       0.050  -0.644  -0.131  1.00  0.00     0.107 A 
HETATM    4  N   LIG     1      -0.810  -1.676  -0.353  1.00  0.00    -0.242 NA
HETATM    5  C   LIG     1      -2.159  -1.501  -0.334  1.00  0.00     0.099 A 
HETATM    6  C   LIG     1      -2.700  -0.238  -0.082  1.00  0.00     0.021 A 
HETATM    7  C   LIG     1      -1.846   0.842   0.150  1.00  0.00     0.003 A 
HETATM    8  C   LIG     1      -0.458   0.650   0.128  1.00  0.00     0.020 A 
HETATM    9  C   LIG     1       0.427   1.714   0.356  1.00  0.00     0.002 A 
HETATM   10  C   LIG     1       1.807   1.492   0.328  1.00  0.00     0.002 A 
HETATM   11  C   LIG     1       2.310   0.213   0.072  1.00  0.00     0.029 A 
ENDROOT
TORSDOF 0
