REMARK  1 active torsions:
REMARK  status: ('A' for Active; 'I' for Inactive)
REMARK    1  A    between atoms: C_2  and  C_3 
ROOT
HETATM    1  C   LIG     1       0.127   1.121  -0.225  1.00  0.00     0.069 A 
HETATM    2  C   LIG     1       0.160   0.524   1.044  1.00  0.00     0.036 A 
HETATM    3  C   LIG     1      -0.003  -0.858   1.196  1.00  0.00     0.159 A 
HETATM    4  O   LIG     1       0.041  -1.380   2.491  1.00  0.00    -0.188 OA
HETATM    5  C   LIG     1      -0.205  -1.667   0.053  1.00  0.00     0.181 A 
HETATM    6  O   LIG     1      -0.373  -3.052   0.133  1.00  0.00    -0.186 OA
HETATM    7  C   LIG     1      -0.239  -1.073  -1.216  1.00  0.00     0.159 A 
HETATM    8  O   LIG     1      -0.439  -1.869  -2.343  1.00  0.00    -0.188 OA
HETATM    9  C   LIG     1      -0.074   0.311  -1.354  1.00  0.00     0.036 A 
ENDROOT
BRANCH   1  10
HETATM   10  C   LIG     1       0.302   2.584  -0.367  1.00  0.00     0.211 C 
HETATM   11  O   LIG     1       0.282   3.123  -1.508  1.00  0.00    -0.644 OA
HETATM   12  O   LIG     1       0.493   3.381   0.759  1.00  0.00    -0.644 OA
ENDBRANCH   1  10
TORSDOF 1
