REMARK  0 active torsions:
REMARK  status: ('A' for Active; 'I' for Inactive)
ROOT
HETATM    1  S   LIG     1       4.043  -1.169   0.093  1.00  0.00    -0.023 SA
HETATM    2  C   LIG     1       2.301  -0.791  -0.018  1.00  0.00     0.146 A 
HETATM    3  N   LIG     1       1.690   0.128   0.767  1.00  0.00    -0.232 NA
HETATM    4  C   LIG     1       0.369   0.212   0.469  1.00  0.00     0.088 A 
HETATM    5  C   LIG     1      -0.531   1.069   1.105  1.00  0.00     0.020 A 
HETATM    6  C   LIG     1      -1.877   1.057   0.698  1.00  0.00     0.002 A 
HETATM    7  C   LIG     1      -2.305   0.194  -0.331  1.00  0.00     0.001 A 
HETATM    8  C   LIG     1      -1.391  -0.664  -0.963  1.00  0.00     0.008 A 
HETATM    9  C   LIG     1      -0.063  -0.632  -0.542  1.00  0.00     0.049 A 
HETATM   10  S   LIG     1       1.237  -1.532  -1.105  1.00  0.00    -0.059 SA
ENDROOT
TORSDOF 0
