REMARK  3 active torsions:
REMARK  status: ('A' for Active; 'I' for Inactive)
REMARK    1  A    between atoms: C_2  and  C_3 
REMARK    2  A    between atoms: C_3  and  C_5 
REMARK    3  A    between atoms: C_5  and  C_6 
ROOT
HETATM    1  C   LIG     1       0.519   0.914  -0.137  1.00  0.00     0.218 C 
HETATM    2  O   LIG     1       0.360   1.195  -1.505  1.00  0.00    -0.218 OA
ENDROOT
BRANCH   1   3
HETATM    3  C   LIG     1       1.776   0.052   0.067  1.00  0.00     0.218 C 
HETATM    4  O   LIG     1       1.795  -1.023  -0.831  1.00  0.00    -0.218 OA
ENDBRANCH   1   3
BRANCH   1   5
HETATM    5  C   LIG     1      -0.775   0.285   0.447  1.00  0.00     0.218 C 
HETATM    6  O   LIG     1      -0.634   0.068   1.828  1.00  0.00    -0.218 OA
BRANCH   5   7
HETATM    7  C   LIG     1      -1.170  -1.036  -0.233  1.00  0.00     0.218 C 
HETATM    8  O   LIG     1      -2.438  -1.446   0.201  1.00  0.00    -0.218 OA
ENDBRANCH   5   7
ENDBRANCH   1   5
TORSDOF 3
