REMARK  1 active torsions:
REMARK  status: ('A' for Active; 'I' for Inactive)
REMARK       I    between atoms: C_2  and  N_6 
REMARK       I    between atoms: C_2  and  N_3 
REMARK    1  A    between atoms: N_6  and  C_7 
ROOT
HETATM    1  C   LIG     1       1.281   0.075   0.170  1.00  0.00     0.086 A 
HETATM    2  C   LIG     1       1.569   0.634  -1.090  1.00  0.00     0.020 A 
HETATM    3  C   LIG     1       2.893   0.865  -1.474  1.00  0.00     0.013 A 
HETATM    4  C   LIG     1       3.941   0.552  -0.603  1.00  0.00     0.058 A 
HETATM    5 CL   LIG     1       5.602   0.844  -1.086  1.00  0.00    -0.082 Cl
HETATM    6  C   LIG     1       3.663   0.016   0.658  1.00  0.00     0.013 A 
HETATM    7  C   LIG     1       2.340  -0.214   1.046  1.00  0.00     0.020 A 
ENDROOT
BRANCH   1   8
HETATM    8  N   LIG     1      -0.073  -0.150   0.600  1.00  0.00    -0.193 NA
HETATM    9  C   LIG     1      -1.144  -0.510  -0.292  1.00  0.00     0.346 C 
HETATM   10  O   LIG     1      -0.875  -0.994  -1.426  1.00  0.00    -0.245 OA
HETATM   11  N   LIG     1      -2.523  -0.357   0.106  1.00  0.00    -0.297 N 
HETATM   12  C   LIG     1      -2.867   0.290   1.376  1.00  0.00     0.130 C 
HETATM   13  C   LIG     1      -3.584  -0.820  -0.795  1.00  0.00     0.130 C 
ENDBRANCH   1   8
TORSDOF 1
