REMARK  3 active torsions:
REMARK  status: ('A' for Active; 'I' for Inactive)
REMARK       I    between atoms: C_2  and  N_3 
REMARK    1  A    between atoms: N_3  and  C_4 
REMARK    2  A    between atoms: C_7  and  O_8 
REMARK    3  A    between atoms: O_8  and  C_9 
ROOT
HETATM    1  C   LIG     1      -1.614   0.140  -0.468  1.00  0.00     0.086 A 
HETATM    2  C   LIG     1      -0.887   1.128  -1.147  1.00  0.00     0.021 A 
HETATM    3  C   LIG     1       0.505   1.185  -1.039  1.00  0.00     0.026 A 
HETATM    4  C   LIG     1       1.197   0.247  -0.265  1.00  0.00     0.094 A 
HETATM    5  C   LIG     1       0.473  -0.761   0.400  1.00  0.00     0.026 A 
HETATM    6  C   LIG     1      -0.920  -0.817   0.293  1.00  0.00     0.021 A 
ENDROOT
BRANCH   1   7
HETATM    7  N   LIG     1      -3.044   0.091  -0.615  1.00  0.00    -0.196 NA
HETATM    8  C   LIG     1      -3.947  -0.336   0.416  1.00  0.00     0.355 C 
HETATM    9  N   LIG     1      -5.326  -0.538   0.113  1.00  0.00    -0.038 NA
HETATM   10  O   LIG     1      -3.543  -0.498   1.599  1.00  0.00    -0.249 OA
ENDBRANCH   1   7
BRANCH   4  11
HETATM   11  O   LIG     1       2.594   0.347  -0.186  1.00  0.00    -0.331 OA
BRANCH  11  12
HETATM   12  C   LIG     1       3.424  -0.537   0.562  1.00  0.00     0.149 C 
HETATM   13  C   LIG     1       4.877  -0.117   0.414  1.00  0.00     0.035 C 
ENDBRANCH  11  12
ENDBRANCH   4  11
TORSDOF 3
