REMARK  1 active torsions:
REMARK  status: ('A' for Active; 'I' for Inactive)
REMARK    1  A    between atoms: C_2  and  C_3 
ROOT
HETATM    1  C   LIG     1       1.118   0.046  -0.055  1.00  0.00     0.065 A 
HETATM    2  C   LIG     1       0.385  -1.075   0.373  1.00  0.00     0.007 A 
HETATM    3  C   LIG     1      -1.012  -1.038   0.407  1.00  0.00     0.014 A 
HETATM    4  C   LIG     1      -1.698   0.119   0.015  1.00  0.00     0.070 A 
HETATM    5  N   LIG     1      -3.127   0.155   0.051  1.00  0.00    -0.101 NA
HETATM    6  C   LIG     1      -0.974   1.240  -0.412  1.00  0.00     0.014 A 
HETATM    7  C   LIG     1       0.423   1.205  -0.447  1.00  0.00     0.007 A 
ENDROOT
BRANCH   1   8
HETATM    8  C   LIG     1       2.596   0.004  -0.090  1.00  0.00     0.211 C 
HETATM    9  O   LIG     1       3.275  -1.147   0.300  1.00  0.00    -0.644 OA
HETATM   10  O   LIG     1       3.255   1.008  -0.473  1.00  0.00    -0.644 OA
ENDBRANCH   1   8
TORSDOF 1
