REMARK  1 active torsions:
REMARK  status: ('A' for Active; 'I' for Inactive)
REMARK    1  A    between atoms: C_2  and  C_5 
ROOT
HETATM    1  F   LIG     1       1.299   1.060   0.799  1.00  0.00    -0.168 F 
HETATM    2  C   LIG     1       0.801   0.013   0.045  1.00  0.00     0.421 C 
HETATM    3  F   LIG     1       1.303  -1.175   0.547  1.00  0.00    -0.168 F 
HETATM    4  F   LIG     1       1.217   0.161  -1.267  1.00  0.00    -0.168 F 
ENDROOT
BRANCH   2   5
HETATM    5  C   LIG     1      -0.725   0.001   0.118  1.00  0.00     0.231 C 
HETATM    6 CL   LIG     1      -1.397   1.531  -0.505  1.00  0.00    -0.093 Cl
HETATM    7 BR   LIG     1      -1.454  -1.472  -0.913  1.00  0.00    -0.055 Br
ENDBRANCH   2   5
TORSDOF 1
