REMARK  1 active torsions:
REMARK  status: ('A' for Active; 'I' for Inactive)
REMARK    1  A    between atoms: C_2  and  C_3 
ROOT
HETATM    1  C   LIG     1       0.453   0.096  -0.067  1.00  0.00     0.032 A 
HETATM    2  C   LIG     1      -0.176  -1.155  -0.275  1.00  0.00     0.057 A 
HETATM    3 CL   LIG     1       0.752  -2.634  -0.507  1.00  0.00    -0.083 Cl
HETATM    4  C   LIG     1      -1.571  -1.244  -0.308  1.00  0.00     0.011 A 
HETATM    5  C   LIG     1      -2.355  -0.105  -0.136  1.00  0.00     0.002 A 
HETATM    6  C   LIG     1      -1.750   1.133   0.074  1.00  0.00     0.011 A 
HETATM    7  C   LIG     1      -0.356   1.246   0.111  1.00  0.00     0.057 A 
HETATM    8 CL   LIG     1       0.321   2.846   0.404  1.00  0.00    -0.083 Cl
ENDROOT
BRANCH   1   9
HETATM    9  C   LIG     1       1.962   0.178  -0.037  1.00  0.00     0.210 C 
HETATM   10  O   LIG     1       2.443  -0.472   1.106  1.00  0.00    -0.215 OA
ENDBRANCH   1   9
TORSDOF 1
