REMARK  2 active torsions:
REMARK  status: ('A' for Active; 'I' for Inactive)
REMARK       I    between atoms: N_2  and  C_3 
REMARK    1  A    between atoms: C_3  and  O_4 
REMARK    2  A    between atoms: O_4  and  N_5 
ROOT
HETATM    1  N   LIG     1       0.743   0.602  -0.364  1.00  0.00    -0.129 NA
HETATM    2  C   LIG     1      -0.449   0.117  -0.512  1.00  0.00     0.079 C 
HETATM    3  C   LIG     1      -1.672   0.936  -0.779  1.00  0.00     0.054 C 
HETATM    4  C   LIG     1      -2.405   1.083   0.572  1.00  0.00     0.097 C 
HETATM    5  C   LIG     1      -3.496   2.070   0.485  1.00  0.00     0.073 C 
HETATM    6  N   LIG     1      -4.352   2.846   0.417  1.00  0.00    -0.196 NA
HETATM    7  C   LIG     1      -2.939  -0.351   0.827  1.00  0.00     0.017 C 
HETATM    8  C   LIG     1      -2.398  -1.144  -0.385  1.00  0.00     0.022 C 
HETATM    9  C   LIG     1      -2.520  -0.102  -1.487  1.00  0.00     0.008 C 
HETATM   10  C   LIG     1      -0.864  -1.294  -0.236  1.00  0.00     0.118 C 
HETATM   11 CL   LIG     1      -0.191  -2.411  -1.458  1.00  0.00    -0.109 Cl
ENDROOT
BRANCH   1  12
HETATM   12  O   LIG     1       1.803  -0.206  -0.015  1.00  0.00    -0.154 OA
BRANCH  12  13
HETATM   13  C   LIG     1       3.084   0.318   0.143  1.00  0.00     0.406 C 
HETATM   14  N   LIG     1       4.159  -0.556   0.505  1.00  0.00    -0.209 NA
HETATM   15  C   LIG     1       5.534  -0.104   0.695  1.00  0.00     0.158 C 
HETATM   16  O   LIG     1       3.288   1.551  -0.031  1.00  0.00    -0.234 OA
ENDBRANCH  12  13
ENDBRANCH   1  12
TORSDOF 2
