REMARK  5 active torsions:
REMARK  status: ('A' for Active; 'I' for Inactive)
REMARK    1  A    between atoms: C_2  and  C_8 
REMARK       I    between atoms: C_2  and  N_3 
REMARK    2  A    between atoms: N_3  and  C_4 
REMARK    3  A    between atoms: N_3  and  C_6 
REMARK    4  A    between atoms: C_8  and  O_9 
REMARK    5  A    between atoms: O_9  and  C_10 
ROOT
HETATM    1  C   LIG     1      -1.447   0.640  -0.315  1.00  0.00     0.095 A 
HETATM    2  C   LIG     1      -1.081   1.803   0.373  1.00  0.00     0.024 A 
HETATM    3  C   LIG     1      -2.029   2.519   1.107  1.00  0.00     0.002 A 
HETATM    4  C   LIG     1      -3.355   2.084   1.157  1.00  0.00     0.000 A 
HETATM    5  C   LIG     1      -3.745   0.929   0.464  1.00  0.00     0.002 A 
HETATM    6  C   LIG     1      -2.786   0.199  -0.285  1.00  0.00     0.022 A 
HETATM    7  C   LIG     1      -3.194  -0.949  -0.990  1.00  0.00     0.002 A 
HETATM    8  C   LIG     1      -4.526  -1.370  -0.942  1.00  0.00     0.000 A 
HETATM    9  C   LIG     1      -5.464  -0.653  -0.197  1.00  0.00     0.000 A 
HETATM   10  C   LIG     1      -5.079   0.493   0.503  1.00  0.00     0.000 A 
ENDROOT
BRANCH   1  11
HETATM   11  O   LIG     1      -0.473  -0.063  -1.030  1.00  0.00    -0.324 OA
BRANCH  11  12
HETATM   12  C   LIG     1       0.246  -1.155  -0.457  1.00  0.00     0.200 C 
HETATM   13  C   LIG     1       1.007  -1.916  -1.541  1.00  0.00     0.043 C 
BRANCH  12  14
HETATM   14  C   LIG     1       1.153  -0.694   0.667  1.00  0.00     0.261 C 
HETATM   15  O   LIG     1       0.853  -1.067   1.835  1.00  0.00    -0.270 OA
HETATM   16  N   LIG     1       2.332   0.132   0.473  1.00  0.00    -0.318 N 
BRANCH  16  17
HETATM   17  C   LIG     1       2.524   0.992  -0.708  1.00  0.00     0.104 C 
HETATM   18  C   LIG     1       3.783   0.598  -1.478  1.00  0.00     0.026 C 
ENDBRANCH  16  17
BRANCH  16  19
HETATM   19  C   LIG     1       3.301   0.246   1.576  1.00  0.00     0.104 C 
HETATM   20  C   LIG     1       4.112  -1.039   1.716  1.00  0.00     0.026 C 
ENDBRANCH  16  19
ENDBRANCH  12  14
ENDBRANCH  11  12
ENDBRANCH   1  11
TORSDOF 5
