REMARK  2 active torsions:
REMARK  status: ('A' for Active; 'I' for Inactive)
REMARK    1  A    between atoms: C_2  and  C_3 
REMARK       I    between atoms: C_2  and  N_10 
REMARK    2  A    between atoms: N_10  and  C_11 
ROOT
HETATM    1  O   LIG     1       0.335   0.826  -1.580  1.00  0.00    -0.265 OA
HETATM    2  C   LIG     1       0.581   0.333  -0.445  1.00  0.00     0.280 C 
HETATM    3  N   LIG     1      -0.439   0.308   0.566  1.00  0.00    -0.208 NA
ENDROOT
BRANCH   2   4
HETATM    4  C   LIG     1       1.953  -0.119  -0.136  1.00  0.00     0.063 A 
HETATM    5  C   LIG     1       3.036   0.684  -0.533  1.00  0.00     0.005 A 
HETATM    6  C   LIG     1       4.348   0.304  -0.239  1.00  0.00     0.000 A 
HETATM    7  C   LIG     1       4.593  -0.886   0.446  1.00  0.00     0.000 A 
HETATM    8  C   LIG     1       3.529  -1.704   0.829  1.00  0.00     0.006 A 
HETATM    9  C   LIG     1       2.209  -1.335   0.540  1.00  0.00     0.035 A 
HETATM   10  I   LIG     1       0.686  -2.724   1.054  1.00  0.00    -0.043 I 
ENDBRANCH   2   4
BRANCH   3  11
HETATM   11  C   LIG     1      -1.847   0.404   0.290  1.00  0.00     0.085 A 
HETATM   12  C   LIG     1      -2.399  -0.107  -0.899  1.00  0.00     0.019 A 
HETATM   13  C   LIG     1      -3.776  -0.025  -1.130  1.00  0.00     0.002 A 
HETATM   14  C   LIG     1      -4.613   0.556  -0.174  1.00  0.00     0.000 A 
HETATM   15  C   LIG     1      -4.076   1.047   1.019  1.00  0.00     0.002 A 
HETATM   16  C   LIG     1      -2.700   0.965   1.254  1.00  0.00     0.019 A 
ENDBRANCH   3  11
TORSDOF 2
