REMARK  4 active torsions:
REMARK  status: ('A' for Active; 'I' for Inactive)
REMARK    1  A    between atoms: C_2  and  C_3 
REMARK    2  A    between atoms: C_3  and  C_7 
REMARK    3  A    between atoms: C_3  and  C_4 
REMARK    4  A    between atoms: C_7  and  C_8 
ROOT
HETATM    1  C   LIG     1      -0.661  -0.054  -0.755  1.00  0.00     0.115 C 
ENDROOT
BRANCH   1   2
HETATM    2  C   LIG     1      -2.026  -0.576  -0.338  1.00  0.00     0.158 C 
HETATM    3  C   LIG     1      -2.212  -1.634   0.717  1.00  0.00     0.073 C 
HETATM    4  O   LIG     1      -3.020  -0.110  -0.876  1.00  0.00    -0.296 OA
ENDBRANCH   1   2
BRANCH   1   5
HETATM    5  C   LIG     1       0.519  -0.916  -0.237  1.00  0.00     0.015 C 
BRANCH   5   6
HETATM    6  C   LIG     1       1.875  -0.579  -0.890  1.00  0.00     0.001 C 
HETATM    7  C   LIG     1       2.616   0.565  -0.196  1.00  0.00     0.000 C 
ENDBRANCH   5   6
ENDBRANCH   1   5
BRANCH   1   8
HETATM    8  C   LIG     1      -0.537   1.395  -0.337  1.00  0.00     0.158 C 
HETATM    9  C   LIG     1      -0.573   1.811   1.107  1.00  0.00     0.073 C 
HETATM   10  O   LIG     1      -0.421   2.257  -1.195  1.00  0.00    -0.296 OA
ENDBRANCH   1   8
TORSDOF 4
