REMARK  1 active torsions:
REMARK  status: ('A' for Active; 'I' for Inactive)
REMARK    1  A    between atoms: C_2  and  C_3 
ROOT
HETATM    1  C   LIG     1       0.084  -0.074  -0.572  1.00  0.00     0.189 A 
HETATM    2  N   LIG     1       0.554  -1.110   0.348  1.00  0.00    -0.209 NA
HETATM    3  C   LIG     1       1.919  -0.849   0.644  1.00  0.00     0.367 A 
HETATM    4  O   LIG     1       2.615  -1.574   1.402  1.00  0.00    -0.243 OA
HETATM    5  N   LIG     1       2.419   0.301  -0.007  1.00  0.00    -0.154 NA
HETATM    6  C   LIG     1       1.311   0.774  -0.759  1.00  0.00     0.282 A 
HETATM    7  O   LIG     1       1.375   1.782  -1.512  1.00  0.00    -0.268 OA
ENDROOT
BRANCH   1   8
HETATM    8  C   LIG     1      -1.063   0.738   0.048  1.00  0.00     0.034 C 
HETATM    9  C   LIG     1      -2.343  -0.086   0.172  1.00  0.00     0.003 C 
ENDBRANCH   1   8
TORSDOF 1
