REMARK  0 active torsions:
REMARK  status: ('A' for Active; 'I' for Inactive)
ROOT
HETATM    1 CL   LIG     1       1.641   1.265   0.061  1.00  0.00    -0.081 Cl
HETATM    2  C   LIG     1       0.663  -0.198   0.019  1.00  0.00     0.081 C 
HETATM    3  C   LIG     1      -0.672  -0.163  -0.022  1.00  0.00     0.081 C 
HETATM    4 CL   LIG     1      -1.574   1.348  -0.038  1.00  0.00    -0.081 Cl
ENDROOT
TORSDOF 0
