REMARK  4 active torsions:
REMARK  status: ('A' for Active; 'I' for Inactive)
REMARK    1  A    between atoms: C_2  and  C_3 
REMARK    2  A    between atoms: C_3  and  C_4 
REMARK    3  A    between atoms: C_9  and  C_10 
REMARK    4  A    between atoms: C_10  and  C_12 
ROOT
HETATM    1  C   LIG     1       0.936   0.676  -0.223  1.00  0.00    -0.022 A 
HETATM    2  C   LIG     1       0.386   0.992   1.028  1.00  0.00    -0.005 A 
HETATM    3  C   LIG     1      -0.985   0.846   1.256  1.00  0.00    -0.004 A 
HETATM    4  C   LIG     1       0.093   0.221  -1.248  1.00  0.00    -0.005 A 
HETATM    5  C   LIG     1      -1.278   0.074  -1.022  1.00  0.00    -0.004 A 
HETATM    6  C   LIG     1      -1.833   0.386   0.233  1.00  0.00    -0.012 A 
ENDROOT
BRANCH   6   7
HETATM    7  C   LIG     1      -3.323   0.228   0.493  1.00  0.00     0.110 C 
HETATM    8  C   LIG     1      -4.144   1.090  -0.474  1.00  0.00     0.016 C 
BRANCH   7   9
HETATM    9  C   LIG     1      -3.774  -1.212   0.435  1.00  0.00     0.189 C 
HETATM   10  O   LIG     1      -5.096  -1.524   0.738  1.00  0.00    -0.647 OA
HETATM   11  O   LIG     1      -2.971  -2.137   0.133  1.00  0.00    -0.647 OA
ENDBRANCH   7   9
ENDBRANCH   6   7
BRANCH   1  12
HETATM   12  C   LIG     1       2.418   0.833  -0.465  1.00  0.00     0.026 C 
BRANCH  12  13
HETATM   13  C   LIG     1       3.252  -0.198   0.327  1.00  0.00     0.004 C 
HETATM   14  C   LIG     1       4.747   0.115   0.190  1.00  0.00     0.000 C 
HETATM   15  C   LIG     1       2.969  -1.631  -0.147  1.00  0.00     0.000 C 
ENDBRANCH  12  13
ENDBRANCH   1  12
TORSDOF 4
