REMARK  1 active torsions:
REMARK  status: ('A' for Active; 'I' for Inactive)
REMARK    1  A    between atoms: C_9  and  C_10 
ROOT
HETATM    1 CL   LIG     1       0.338  -1.340   2.541  1.00  0.00    -0.082 Cl
HETATM    2  C   LIG     1       1.279  -0.828   1.143  1.00  0.00     0.059 A 
HETATM    3  C   LIG     1       2.657  -1.074   1.148  1.00  0.00     0.024 A 
HETATM    4  C   LIG     1       3.462  -0.639   0.090  1.00  0.00     0.069 A 
HETATM    5 CL   LIG     1       5.188  -0.971   0.142  1.00  0.00    -0.082 Cl
HETATM    6  C   LIG     1       2.886   0.057  -0.983  1.00  0.00     0.068 A 
HETATM    7 CL   LIG     1       3.863   0.626  -2.330  1.00  0.00    -0.082 Cl
HETATM    8  C   LIG     1       1.509   0.306  -0.993  1.00  0.00     0.013 A 
HETATM    9  C   LIG     1       0.692  -0.139   0.060  1.00  0.00     0.011 A 
ENDROOT
BRANCH   9  10
HETATM   10  C   LIG     1      -0.762   0.132   0.005  1.00  0.00     0.001 A 
HETATM   11  C   LIG     1      -1.688  -0.924   0.064  1.00  0.00     0.000 A 
HETATM   12  C   LIG     1      -3.060  -0.663  -0.006  1.00  0.00     0.000 A 
HETATM   13  C   LIG     1      -3.518   0.650  -0.143  1.00  0.00     0.000 A 
HETATM   14  C   LIG     1      -2.604   1.704  -0.214  1.00  0.00     0.000 A 
HETATM   15  C   LIG     1      -1.231   1.448  -0.145  1.00  0.00     0.000 A 
ENDBRANCH   9  10
TORSDOF 1
