REMARK  3 active torsions:
REMARK  status: ('A' for Active; 'I' for Inactive)
REMARK    1  A    between atoms: C_3  and  C_4 
REMARK    2  A    between atoms: C_11  and  C_13 
REMARK    3  A    between atoms: C_13  and  C_15 
ROOT
HETATM    1  C   LIG     1       1.131   0.811   1.190  1.00  0.00     0.268 C 
HETATM    2  O   LIG     1       2.197  -0.083   1.301  1.00  0.00    -0.301 OA
HETATM    3  C   LIG     1       2.902   0.030   0.088  1.00  0.00     0.281 C 
HETATM    4  O   LIG     1       2.056   0.526  -0.921  1.00  0.00    -0.323 OA
HETATM    5  C   LIG     1       1.098   1.277  -0.240  1.00  0.00     0.207 C 
HETATM    6  C   LIG     1      -0.298   0.934  -0.713  1.00  0.00     0.214 C 
HETATM    7  C   LIG     1      -0.727  -0.132   0.299  1.00  0.00     0.184 C 
HETATM    8  O   LIG     1      -0.078   0.155   1.515  1.00  0.00    -0.326 OA
HETATM    9  O   LIG     1      -1.130   2.071  -0.694  1.00  0.00    -0.218 OA
ENDROOT
BRANCH   3  10
HETATM   10  C   LIG     1       3.476  -1.333  -0.323  1.00  0.00     0.250 C 
HETATM   11 CL   LIG     1       2.174  -2.527  -0.571  1.00  0.00    -0.078 Cl
HETATM   12 CL   LIG     1       4.402  -1.176  -1.839  1.00  0.00    -0.078 Cl
HETATM   13 CL   LIG     1       4.576  -1.942   0.942  1.00  0.00    -0.078 Cl
ENDBRANCH   3  10
BRANCH   7  14
HETATM   14  C   LIG     1      -2.250  -0.289   0.525  1.00  0.00     0.215 C 
HETATM   15  O   LIG     1      -2.774   0.860   1.139  1.00  0.00    -0.218 OA
BRANCH  14  16
HETATM   16  C   LIG     1      -3.014  -0.589  -0.778  1.00  0.00     0.218 C 
HETATM   17  O   LIG     1      -2.517  -1.744  -1.399  1.00  0.00    -0.218 OA
ENDBRANCH  14  16
ENDBRANCH   7  14
TORSDOF 3
