REMARK  4 active torsions:
REMARK  status: ('A' for Active; 'I' for Inactive)
REMARK    1  A    between atoms: N_2  and  N_3 
REMARK       I    between atoms: N_3  and  C_4 
REMARK    2  A    between atoms: C_4  and  C_5 
REMARK    3  A    between atoms: C_5  and  C_6 
REMARK    4  A    between atoms: C_6  and  C_7 
ROOT
HETATM    1  N   LIG     1      -0.889  -0.257   0.503  1.00  0.00    -0.158 NA
HETATM    2  C   LIG     1      -0.074  -0.830  -0.523  1.00  0.00     0.268 C 
HETATM    3  O   LIG     1      -0.605  -1.272  -1.578  1.00  0.00    -0.269 OA
ENDROOT
BRANCH   2   4
HETATM    4  C   LIG     1       1.416  -0.865  -0.372  1.00  0.00     0.102 C 
BRANCH   4   5
HETATM    5  C   LIG     1       2.025   0.481  -0.770  1.00  0.00     0.107 C 
BRANCH   5   6
HETATM    6  C   LIG     1       3.516   0.453  -0.640  1.00  0.00     0.186 C 
HETATM    7  O   LIG     1       4.314   0.604  -1.770  1.00  0.00    -0.647 OA
HETATM    8  O   LIG     1       4.050   0.301   0.491  1.00  0.00    -0.647 OA
ENDBRANCH   5   6
ENDBRANCH   4   5
ENDBRANCH   2   4
BRANCH   1   9
HETATM    9  N   LIG     1      -2.287  -0.191   0.346  1.00  0.00    -0.172 NA
HETATM   10  C   LIG     1      -2.690   1.220   0.389  1.00  0.00     0.116 C 
HETATM   11  C   LIG     1      -2.912  -0.936   1.445  1.00  0.00     0.116 C 
ENDBRANCH   1   9
TORSDOF 4
