REMARK  1 active torsions:
REMARK  status: ('A' for Active; 'I' for Inactive)
REMARK    1  A    between atoms: C_8  and  C_9 
ROOT
HETATM    1 CL   LIG     1      -0.611  -2.241   1.567  1.00  0.00    -0.082 Cl
HETATM    2  C   LIG     1      -1.418  -1.150   0.446  1.00  0.00     0.059 A 
HETATM    3  C   LIG     1      -2.781  -1.337   0.190  1.00  0.00     0.011 A 
HETATM    4  C   LIG     1      -3.454  -0.491  -0.694  1.00  0.00     0.002 A 
HETATM    5  C   LIG     1      -2.770   0.547  -1.327  1.00  0.00     0.011 A 
HETATM    6  C   LIG     1      -1.407   0.748  -1.082  1.00  0.00     0.059 A 
HETATM    7 CL   LIG     1      -0.585   2.071  -1.903  1.00  0.00    -0.082 Cl
HETATM    8  C   LIG     1      -0.720  -0.102  -0.190  1.00  0.00     0.023 A 
ENDROOT
BRANCH   8   9
HETATM    9  C   LIG     1       0.720   0.102   0.075  1.00  0.00     0.023 A 
HETATM   10  C   LIG     1       1.688  -0.544  -0.721  1.00  0.00     0.059 A 
HETATM   11  C   LIG     1       3.049  -0.345  -0.464  1.00  0.00     0.011 A 
HETATM   12 CL   LIG     1       1.225  -1.607  -2.045  1.00  0.00    -0.082 Cl
HETATM   13  C   LIG     1       3.454   0.491   0.578  1.00  0.00     0.002 A 
HETATM   14  C   LIG     1       2.501   1.135   1.370  1.00  0.00     0.011 A 
HETATM   15  C   LIG     1       1.137   0.946   1.125  1.00  0.00     0.059 A 
HETATM   16 CL   LIG     1      -0.029   1.778   2.150  1.00  0.00    -0.082 Cl
ENDBRANCH   8   9
TORSDOF 1
