REMARK  6 active torsions:
REMARK  status: ('A' for Active; 'I' for Inactive)
REMARK    1  A    between atoms: C_2  and  C_17 
REMARK       I    between atoms: C_2  and  N_3 
REMARK    2  A    between atoms: N_3  and  C_4 
REMARK    3  A    between atoms: N_3  and  C_14 
REMARK    4  A    between atoms: C_5  and  C_6 
REMARK    5  A    between atoms: C_11  and  C_12 
REMARK    6  A    between atoms: C_14  and  O_15 
ROOT
HETATM    1  C   LIG     1      -0.569   0.558   0.479  1.00  0.00     0.057 A 
HETATM    2  C   LIG     1      -1.699  -0.212   0.848  1.00  0.00    -0.006 A 
HETATM    3  C   LIG     1      -2.965   0.393   0.878  1.00  0.00    -0.003 A 
HETATM    4  C   LIG     1      -3.115   1.741   0.560  1.00  0.00    -0.001 A 
HETATM    5  C   LIG     1      -2.005   2.505   0.205  1.00  0.00    -0.003 A 
HETATM    6  C   LIG     1      -0.725   1.932   0.170  1.00  0.00    -0.006 A 
ENDROOT
BRANCH   1   7
HETATM    7  N   LIG     1       0.738  -0.044   0.442  1.00  0.00    -0.273 N 
HETATM    8  C   LIG     1       1.571   0.005   1.622  1.00  0.00     0.256 C 
HETATM    9  O   LIG     1       1.093   0.458   2.699  1.00  0.00    -0.271 OA
BRANCH   8  10
HETATM   10  C   LIG     1       2.995  -0.486   1.593  1.00  0.00     0.183 C 
HETATM   11 CL   LIG     1       3.857  -0.163   3.124  1.00  0.00    -0.103 Cl
ENDBRANCH   8  10
BRANCH   7  12
HETATM   12  C   LIG     1       1.186  -0.694  -0.794  1.00  0.00     0.258 C 
BRANCH  12  13
HETATM   13  O   LIG     1       1.356  -2.075  -0.561  1.00  0.00    -0.330 OA
HETATM   14  C   LIG     1       1.782  -2.703  -1.750  1.00  0.00     0.177 C 
ENDBRANCH  12  13
ENDBRANCH   7  12
ENDBRANCH   1   7
BRANCH   6  15
HETATM   15  C   LIG     1       0.445   2.793  -0.247  1.00  0.00     0.028 C 
HETATM   16  C   LIG     1       0.549   2.874  -1.767  1.00  0.00     0.005 C 
ENDBRANCH   6  15
BRANCH   2  17
HETATM   17  C   LIG     1      -1.592  -1.685   1.169  1.00  0.00     0.028 C 
HETATM   18  C   LIG     1      -1.993  -2.535  -0.033  1.00  0.00     0.005 C 
ENDBRANCH   2  17
TORSDOF 6
