REMARK  5 active torsions:
REMARK  status: ('A' for Active; 'I' for Inactive)
REMARK    1  A    between atoms: C_2  and  C_6 
REMARK       I    between atoms: C_2  and  N_3 
REMARK    2  A    between atoms: N_3  and  C_4 
REMARK    3  A    between atoms: C_6  and  O_7 
REMARK    4  A    between atoms: O_7  and  C_8 
REMARK       I    between atoms: C_8  and  N_9 
REMARK    5  A    between atoms: N_9  and  C_10 
ROOT
HETATM    1  C   LIG     1       0.844   0.895  -0.193  1.00  0.00     0.388 C 
HETATM    2  N   LIG     1       2.181   1.269   0.164  1.00  0.00    -0.186 NA
HETATM    3  O   LIG     1       0.639  -0.068  -0.981  1.00  0.00    -0.236 OA
ENDROOT
BRANCH   1   4
HETATM    4  O   LIG     1      -0.228   1.641   0.320  1.00  0.00    -0.276 OA
BRANCH   4   5
HETATM    5  C   LIG     1      -1.616   1.419   0.033  1.00  0.00     0.206 C 
HETATM    6  C   LIG     1      -1.905   1.547  -1.467  1.00  0.00     0.043 C 
BRANCH   5   7
HETATM    7  C   LIG     1      -2.111   0.104   0.587  1.00  0.00     0.279 C 
HETATM    8  O   LIG     1      -1.295  -0.747   1.033  1.00  0.00    -0.268 OA
HETATM    9  N   LIG     1      -3.518  -0.171   0.617  1.00  0.00    -0.236 NA
BRANCH   9  10
HETATM   10  C   LIG     1      -4.035  -1.446   1.112  1.00  0.00     0.129 C 
HETATM   11  C   LIG     1      -5.558  -1.487   1.032  1.00  0.00     0.029 C 
ENDBRANCH   9  10
ENDBRANCH   5   7
ENDBRANCH   4   5
ENDBRANCH   1   4
BRANCH   2  12
HETATM   12  C   LIG     1       3.348   0.479  -0.124  1.00  0.00     0.087 A 
HETATM   13  C   LIG     1       4.568   1.124  -0.382  1.00  0.00     0.019 A 
HETATM   14  C   LIG     1       5.721   0.378  -0.643  1.00  0.00     0.002 A 
HETATM   15  C   LIG     1       5.670  -1.018  -0.632  1.00  0.00     0.000 A 
HETATM   16  C   LIG     1       4.466  -1.670  -0.353  1.00  0.00     0.002 A 
HETATM   17  C   LIG     1       3.310  -0.928  -0.092  1.00  0.00     0.019 A 
ENDBRANCH   2  12
TORSDOF 5
