REMARK  3 active torsions:
REMARK  status: ('A' for Active; 'I' for Inactive)
REMARK    1  A    between atoms: C_2  and  C_3 
REMARK    2  A    between atoms: C_3  and  C_4 
REMARK    3  A    between atoms: C_4  and  C_5 
ROOT
HETATM    1  C   LIG     1       0.946   0.519  -0.645  1.00  0.00     0.173 C 
HETATM    2  O   LIG     1       1.249   1.707  -0.944  1.00  0.00    -0.291 OA
ENDROOT
BRANCH   1   3
HETATM    3  C   LIG     1       1.978  -0.420  -0.166  1.00  0.00     0.037 C 
HETATM    4  C   LIG     1       3.261  -0.079  -0.055  1.00  0.00     0.003 C 
ENDBRANCH   1   3
BRANCH   1   5
HETATM    5  C   LIG     1      -0.485   0.081  -0.738  1.00  0.00     0.069 C 
BRANCH   5   6
HETATM    6  C   LIG     1      -1.187   0.249   0.613  1.00  0.00     0.008 C 
HETATM    7  C   LIG     1      -2.647  -0.189   0.534  1.00  0.00     0.001 C 
ENDBRANCH   5   6
ENDBRANCH   1   5
TORSDOF 3
