REMARK  1 active torsions:
REMARK  status: ('A' for Active; 'I' for Inactive)
REMARK    1  A    between atoms: C_2  and  O_5 
ROOT
HETATM    1  C   LIG     1      -0.998  -1.045   1.175  1.00  0.00     0.030 C 
HETATM    2  C   LIG     1      -0.220  -0.186   0.164  1.00  0.00     0.093 C 
HETATM    3  C   LIG     1      -0.985  -0.221  -1.178  1.00  0.00     0.030 C 
HETATM    4  C   LIG     1      -0.164   1.261   0.715  1.00  0.00     0.030 C 
ENDROOT
BRANCH   2   5
HETATM    5  O   LIG     1       1.068  -0.789   0.036  1.00  0.00    -0.356 OA
HETATM    6  C   LIG     1       2.010   0.001  -0.664  1.00  0.00     0.174 C 
ENDBRANCH   2   5
TORSDOF 1
