REMARK  1 active torsions:
REMARK  status: ('A' for Active; 'I' for Inactive)
REMARK    1  A    between atoms: C_3  and  C_4 
ROOT
HETATM    1  C   LIG     1       1.101  -0.489   0.273  1.00  0.00     0.131 C 
HETATM    2  C   LIG     1       2.556  -0.307   0.290  1.00  0.00     0.079 C 
HETATM    3  N   LIG     1       3.705  -0.164   0.303  1.00  0.00    -0.196 NA
ENDROOT
BRANCH   1   4
HETATM    4  C   LIG     1       0.419   0.735  -0.278  1.00  0.00    -0.015 C 
HETATM    5  C   LIG     1      -0.915   0.831  -0.403  1.00  0.00    -0.029 C 
HETATM    6  C   LIG     1      -1.859  -0.267  -0.007  1.00  0.00     0.030 C 
ENDBRANCH   1   4
TORSDOF 1
