REMARK  1 active torsions:
REMARK  status: ('A' for Active; 'I' for Inactive)
REMARK    1  A    between atoms: C_8  and  C_9 
ROOT
HETATM    1 CL   LIG     1      -0.670  -2.727   0.755  1.00  0.00    -0.082 Cl
HETATM    2  C   LIG     1      -1.483  -1.215   0.361  1.00  0.00     0.058 A 
HETATM    3  C   LIG     1      -2.883  -1.199   0.359  1.00  0.00     0.012 A 
HETATM    4  C   LIG     1      -3.576  -0.041  -0.001  1.00  0.00     0.012 A 
HETATM    5  C   LIG     1      -2.873   1.109  -0.369  1.00  0.00     0.058 A 
HETATM    6 CL   LIG     1      -3.745   2.561  -0.827  1.00  0.00    -0.082 Cl
HETATM    7  C   LIG     1      -1.475   1.103  -0.370  1.00  0.00     0.012 A 
HETATM    8  C   LIG     1      -0.765  -0.052   0.003  1.00  0.00     0.011 A 
ENDROOT
BRANCH   8   9
HETATM    9  C   LIG     1       0.714  -0.018   0.004  1.00  0.00     0.001 A 
HETATM   10  C   LIG     1       1.414   0.350  -1.157  1.00  0.00     0.001 A 
HETATM   11  C   LIG     1       2.811   0.400  -1.154  1.00  0.00     0.011 A 
HETATM   12  C   LIG     1       3.521   0.090   0.011  1.00  0.00     0.058 A 
HETATM   13  C   LIG     1       2.832  -0.266   1.174  1.00  0.00     0.011 A 
HETATM   14 CL   LIG     1       5.274   0.153   0.013  1.00  0.00    -0.082 Cl
HETATM   15  C   LIG     1       1.434  -0.316   1.174  1.00  0.00     0.001 A 
ENDBRANCH   8   9
TORSDOF 1
