REMARK  3 active torsions:
REMARK  status: ('A' for Active; 'I' for Inactive)
REMARK    1  A    between atoms: N_2  and  C_4 
REMARK    2  A    between atoms: C_4  and  C_5 
REMARK    3  A    between atoms: C_5  and  C_6 
ROOT
HETATM    1  C   LIG     1       0.416  -0.471   0.577  1.00  0.00    -0.024 C 
HETATM    2  C   LIG     1      -0.645   0.061  -0.064  1.00  0.00    -0.003 C 
HETATM    3  C   LIG     1      -0.866   1.522  -0.220  1.00  0.00     0.022 A 
HETATM    4  C   LIG     1      -2.102   2.151   0.110  1.00  0.00     0.094 A 
HETATM    5  C   LIG     1      -2.253   3.525  -0.123  1.00  0.00     0.024 A 
HETATM    6  C   LIG     1      -1.224   4.275  -0.691  1.00  0.00     0.002 A 
HETATM    7  C   LIG     1      -0.031   3.657  -1.053  1.00  0.00     0.000 A 
HETATM    8  C   LIG     1       0.142   2.290  -0.835  1.00  0.00     0.002 A 
HETATM    9  O   LIG     1      -3.217   1.482   0.650  1.00  0.00    -0.326 OA
HETATM   10  C   LIG     1      -3.270   0.128   1.093  1.00  0.00     0.175 C 
HETATM   11  C   LIG     1      -2.973  -0.812  -0.042  1.00  0.00     0.008 A 
HETATM   12  C   LIG     1      -1.680  -0.849  -0.587  1.00  0.00    -0.002 A 
HETATM   13  C   LIG     1      -1.377  -1.759  -1.612  1.00  0.00    -0.000 A 
HETATM   14  C   LIG     1      -2.366  -2.616  -2.103  1.00  0.00    -0.000 A 
HETATM   15  C   LIG     1      -3.657  -2.573  -1.569  1.00  0.00    -0.000 A 
HETATM   16  C   LIG     1      -3.962  -1.677  -0.540  1.00  0.00    -0.002 A 
ENDROOT
BRANCH   1  17
HETATM   17  C   LIG     1       1.456   0.307   1.344  1.00  0.00     0.061 C 
BRANCH  17  18
HETATM   18  C   LIG     1       2.854   0.106   0.745  1.00  0.00     0.255 C 
BRANCH  18  19
HETATM   19  N   LIG     1       3.246  -1.322   0.757  1.00  0.00     0.142 N 
HETATM   20  C   LIG     1       3.830  -1.701   2.055  1.00  0.00     0.285 C 
HETATM   21  C   LIG     1       4.216  -1.596  -0.315  1.00  0.00     0.285 C 
ENDBRANCH  18  19
ENDBRANCH  17  18
ENDBRANCH   1  17
TORSDOF 3
