REMARK  1 active torsions:
REMARK  status: ('A' for Active; 'I' for Inactive)
REMARK    1  A    between atoms: C_2  and  C_3 
ROOT
HETATM    1  C   LIG     1       0.613  -0.234  -0.672  1.00  0.00     0.000 C 
HETATM    2  C   LIG     1      -0.434  -1.363  -0.801  1.00  0.00     0.000 C 
HETATM    3  C   LIG     1      -1.565  -1.230   0.230  1.00  0.00     0.000 C 
HETATM    4  C   LIG     1      -2.241   0.142   0.133  1.00  0.00     0.000 C 
HETATM    5  C   LIG     1      -1.222   1.276   0.292  1.00  0.00     0.000 C 
HETATM    6  C   LIG     1      -0.085   1.146  -0.732  1.00  0.00     0.000 C 
ENDROOT
BRANCH   1   7
HETATM    7  C   LIG     1       1.499  -0.426   0.585  1.00  0.00     0.000 C 
HETATM    8  C   LIG     1       2.732   0.479   0.590  1.00  0.00     0.000 C 
ENDBRANCH   1   7
TORSDOF 1
