REMARK  0 active torsions:
REMARK  status: ('A' for Active; 'I' for Inactive)
ROOT
HETATM    1  S   LIG     1       3.893  -1.135   0.219  1.00  0.00    -0.037 SA
HETATM    2  C   LIG     1       2.422  -0.426   0.133  1.00  0.00     0.222 A 
HETATM    3  N   LIG     1       2.334   0.932   0.115  1.00  0.00    -0.214 NA
HETATM    4  C   LIG     1       1.131   1.560   0.045  1.00  0.00     0.124 A 
HETATM    5  C   LIG     1      -0.037   0.803  -0.010  1.00  0.00     0.136 A 
HETATM    6  C   LIG     1       0.067  -0.598   0.010  1.00  0.00     0.184 A 
HETATM    7  N   LIG     1       1.291  -1.187   0.081  1.00  0.00    -0.197 NA
HETATM    8  N   LIG     1      -1.065  -1.349  -0.043  1.00  0.00    -0.222 NA
HETATM    9  C   LIG     1      -2.291  -0.763  -0.115  1.00  0.00     0.121 A 
HETATM   10  C   LIG     1      -2.391   0.632  -0.134  1.00  0.00     0.120 A 
HETATM   11  N   LIG     1      -1.261   1.387  -0.081  1.00  0.00    -0.238 NA
ENDROOT
TORSDOF 0
