REMARK  1 active torsions:
REMARK  status: ('A' for Active; 'I' for Inactive)
REMARK    1  A    between atoms: S_2  and  C_3 
ROOT
HETATM    1  C   LIG     1       1.329  -0.126  -0.988  1.00  0.00     0.192 A 
HETATM    2  N   LIG     1       1.011  -1.429  -0.756  1.00  0.00    -0.218 NA
HETATM    3  C   LIG     1      -0.209  -1.779  -0.270  1.00  0.00     0.123 A 
HETATM    4  C   LIG     1      -1.153  -0.789  -0.005  1.00  0.00     0.136 A 
HETATM    5  N   LIG     1      -2.386  -1.090   0.482  1.00  0.00    -0.238 NA
HETATM    6  C   LIG     1      -3.293  -0.108   0.733  1.00  0.00     0.120 A 
HETATM    7  C   LIG     1      -2.952   1.227   0.487  1.00  0.00     0.121 A 
HETATM    8  N   LIG     1      -1.718   1.528   0.000  1.00  0.00    -0.222 NA
HETATM    9  C   LIG     1      -0.810   0.550  -0.252  1.00  0.00     0.184 A 
HETATM   10  N   LIG     1       0.420   0.855  -0.738  1.00  0.00    -0.201 NA
ENDROOT
BRANCH   1  11
HETATM   11  S   LIG     1       2.944   0.298  -1.628  1.00  0.00    -0.075 SA
HETATM   12  C   LIG     1       3.679   0.478   0.027  1.00  0.00     0.077 C 
ENDBRANCH   1  11
TORSDOF 1
