REMARK  0 active torsions:
REMARK  status: ('A' for Active; 'I' for Inactive)
ROOT
HETATM    1  O   LIG     1      -2.777   0.192  -0.118  1.00  0.00    -0.189 OA
HETATM    2  C   LIG     1      -1.385   0.107  -0.061  1.00  0.00     0.142 A 
HETATM    3  C   LIG     1      -0.729  -1.117   0.188  1.00  0.00     0.057 A 
HETATM    4  I   LIG     1      -1.780  -2.931   0.497  1.00  0.00    -0.041 I 
HETATM    5  C   LIG     1       0.669  -1.159   0.237  1.00  0.00     0.018 A 
HETATM    6  C   LIG     1       1.420   0.005   0.041  1.00  0.00     0.069 A 
HETATM    7  C   LIG     1       2.858  -0.046   0.093  1.00  0.00     0.101 C 
HETATM    8  N   LIG     1       4.014  -0.087   0.135  1.00  0.00    -0.191 NA
HETATM    9  C   LIG     1       0.771   1.219  -0.206  1.00  0.00     0.018 A 
HETATM   10  C   LIG     1      -0.626   1.272  -0.257  1.00  0.00     0.057 A 
HETATM   11  I   LIG     1      -1.567   3.128  -0.633  1.00  0.00    -0.041 I 
ENDROOT
TORSDOF 0
