REMARK  0 active torsions:
REMARK  status: ('A' for Active; 'I' for Inactive)
ROOT
HETATM    1 BR   LIG     1      -1.621   2.756   0.676  1.00  0.00    -0.047 Br
HETATM    2  C   LIG     1      -0.706   1.120   0.276  1.00  0.00     0.061 A 
HETATM    3  C   LIG     1       0.694   1.137   0.238  1.00  0.00     0.019 A 
HETATM    4  C   LIG     1       1.407  -0.031  -0.050  1.00  0.00     0.069 A 
HETATM    5  C   LIG     1       2.846  -0.007  -0.087  1.00  0.00     0.101 C 
HETATM    6  N   LIG     1       4.003   0.013  -0.118  1.00  0.00    -0.191 NA
HETATM    7  C   LIG     1       0.720  -1.223  -0.300  1.00  0.00     0.019 A 
HETATM    8  C   LIG     1      -0.678  -1.250  -0.264  1.00  0.00     0.061 A 
HETATM    9 BR   LIG     1      -1.588  -2.897  -0.611  1.00  0.00    -0.047 Br
HETATM   10  C   LIG     1      -1.400  -0.081   0.024  1.00  0.00     0.143 A 
HETATM   11  O   LIG     1      -2.795  -0.137   0.053  1.00  0.00    -0.189 OA
ENDROOT
TORSDOF 0
