REMARK  1 active torsions:
REMARK  status: ('A' for Active; 'I' for Inactive)
REMARK    1  A    between atoms: N_9  and  C_10 
ROOT
HETATM    1  O   LIG     1       0.347  -2.250   0.183  1.00  0.00    -0.264 OA
HETATM    2  C   LIG     1       0.964  -1.151   0.105  1.00  0.00     0.292 A 
HETATM    3  C   LIG     1       2.364  -1.148   0.034  1.00  0.00     0.130 A 
HETATM    4 CL   LIG     1       3.239  -2.679   0.016  1.00  0.00    -0.076 Cl
HETATM    5  C   LIG     1       3.042   0.080  -0.010  1.00  0.00     0.106 A 
HETATM    6  N   LIG     1       4.472   0.150  -0.080  1.00  0.00    -0.098 NA
HETATM    7  C   LIG     1       2.295   1.258   0.022  1.00  0.00     0.136 A 
HETATM    8  N   LIG     1       0.941   1.197   0.083  1.00  0.00    -0.160 NA
HETATM    9  N   LIG     1       0.279   0.037   0.112  1.00  0.00    -0.194 N 
ENDROOT
BRANCH   9  10
HETATM   10  C   LIG     1      -1.160   0.082   0.172  1.00  0.00     0.086 A 
HETATM   11  C   LIG     1      -1.798   0.932   1.091  1.00  0.00     0.019 A 
HETATM   12  C   LIG     1      -3.194   0.999   1.142  1.00  0.00     0.002 A 
HETATM   13  C   LIG     1      -3.964   0.228   0.268  1.00  0.00     0.000 A 
HETATM   14  C   LIG     1      -3.340  -0.608  -0.662  1.00  0.00     0.002 A 
HETATM   15  C   LIG     1      -1.944  -0.678  -0.715  1.00  0.00     0.019 A 
ENDBRANCH   9  10
TORSDOF 1
