REMARK  0 active torsions:
REMARK  status: ('A' for Active; 'I' for Inactive)
ROOT
HETATM    1  C   LIG     1      -3.149  -1.403   0.126  1.00  0.00     0.030 C 
HETATM    2  C   LIG     1      -2.298  -0.170   0.205  1.00  0.00    -0.025 A 
HETATM    3  C   LIG     1      -0.899  -0.256   0.144  1.00  0.00    -0.022 A 
HETATM    4  C   LIG     1      -0.050  -1.491   0.001  1.00  0.00     0.052 A 
HETATM    5  C   LIG     1       1.323  -0.887   0.003  1.00  0.00    -0.018 A 
HETATM    6  C   LIG     1       2.547  -1.549  -0.103  1.00  0.00    -0.004 A 
HETATM    7  C   LIG     1       3.728  -0.788  -0.080  1.00  0.00    -0.000 A 
HETATM    8  C   LIG     1       3.670   0.615   0.049  1.00  0.00    -0.000 A 
HETATM    9  C   LIG     1       2.431   1.267   0.154  1.00  0.00    -0.000 A 
HETATM   10  C   LIG     1       1.273   0.488   0.129  1.00  0.00    -0.004 A 
HETATM   11  C   LIG     1      -0.117   0.883   0.217  1.00  0.00    -0.004 A 
HETATM   12  C   LIG     1      -0.676   2.153   0.352  1.00  0.00    -0.000 A 
HETATM   13  C   LIG     1      -2.073   2.260   0.415  1.00  0.00    -0.000 A 
HETATM   14  C   LIG     1      -2.880   1.108   0.342  1.00  0.00    -0.004 A 
ENDROOT
TORSDOF 0
