REMARK  0 active torsions:
REMARK  status: ('A' for Active; 'I' for Inactive)
ROOT
HETATM    1  C   LIG     1      -0.709  -0.030   0.008  1.00  0.00    -0.008 A 
HETATM    2  C   LIG     1       0.709   0.030  -0.006  1.00  0.00    -0.008 A 
HETATM    3  C   LIG     1       1.357   1.286  -0.028  1.00  0.00    -0.022 A 
HETATM    4  C   LIG     1       0.593   2.460  -0.057  1.00  0.00    -0.004 A 
HETATM    5  C   LIG     1      -0.800   2.401  -0.035  1.00  0.00    -0.004 A 
HETATM    6  C   LIG     1      -1.461   1.166  -0.014  1.00  0.00    -0.022 A 
HETATM    7  C   LIG     1      -2.968   1.132   0.061  1.00  0.00     0.026 C 
HETATM    8  C   LIG     1      -3.519  -0.150  -0.566  1.00  0.00     0.009 C 
HETATM    9  C   LIG     1      -2.864  -1.386   0.057  1.00  0.00     0.026 C 
HETATM   10  C   LIG     1      -1.357  -1.286   0.033  1.00  0.00    -0.022 A 
HETATM   11  C   LIG     1      -0.593  -2.460   0.062  1.00  0.00    -0.004 A 
HETATM   12  C   LIG     1       0.800  -2.401   0.047  1.00  0.00    -0.004 A 
HETATM   13  C   LIG     1       1.461  -1.166   0.026  1.00  0.00    -0.022 A 
HETATM   14  C   LIG     1       2.970  -1.134  -0.034  1.00  0.00     0.026 C 
HETATM   15  C   LIG     1       3.519   0.163   0.564  1.00  0.00     0.009 C 
HETATM   16  C   LIG     1       2.862   1.380  -0.091  1.00  0.00     0.026 C 
ENDROOT
TORSDOF 0
