REMARK  2 active torsions:
REMARK  status: ('A' for Active; 'I' for Inactive)
REMARK       I    between atoms: C_2  and  N_7 
REMARK       I    between atoms: C_2  and  N_3 
REMARK    1  A    between atoms: N_3  and  O_4 
REMARK    2  A    between atoms: N_7  and  C_8 
ROOT
HETATM    1  C   LIG     1       1.427  -0.104  -0.034  1.00  0.00     0.086 A 
HETATM    2  C   LIG     1       1.536   0.131   1.349  1.00  0.00     0.020 A 
HETATM    3  C   LIG     1       2.795   0.231   1.951  1.00  0.00     0.013 A 
HETATM    4  C   LIG     1       3.954   0.111   1.177  1.00  0.00     0.058 A 
HETATM    5 CL   LIG     1       5.532   0.239   1.933  1.00  0.00    -0.082 Cl
HETATM    6  C   LIG     1       3.853  -0.100  -0.201  1.00  0.00     0.013 A 
HETATM    7  C   LIG     1       2.596  -0.200  -0.805  1.00  0.00     0.020 A 
ENDROOT
BRANCH   1   8
HETATM    8  N   LIG     1       0.146  -0.185  -0.682  1.00  0.00    -0.191 NA
HETATM    9  C   LIG     1      -1.032  -0.732  -0.067  1.00  0.00     0.369 C 
HETATM   10  O   LIG     1      -0.933  -1.439   0.973  1.00  0.00    -0.242 OA
HETATM   11  N   LIG     1      -2.325  -0.508  -0.657  1.00  0.00    -0.186 N 
HETATM   12  C   LIG     1      -3.506  -1.199  -0.141  1.00  0.00     0.164 C 
BRANCH  11  13
HETATM   13  O   LIG     1      -2.442   0.267  -1.772  1.00  0.00    -0.251 OA
HETATM   14  C   LIG     1      -2.708   1.577  -1.334  1.00  0.00     0.209 C 
ENDBRANCH  11  13
ENDBRANCH   1   8
TORSDOF 2
