REMARK  5 active torsions:
REMARK  status: ('A' for Active; 'I' for Inactive)
REMARK    1  A    between atoms: C_2  and  O_3 
REMARK    2  A    between atoms: O_3  and  C_4 
REMARK    3  A    between atoms: C_4  and  C_5 
REMARK    4  A    between atoms: C_5  and  C_6 
REMARK    5  A    between atoms: C_5  and  C_13 
ROOT
HETATM    1  C   LIG     1       0.365  -0.500  -0.856  1.00  0.00     0.241 C 
HETATM    2  O   LIG     1       0.258  -0.688  -2.251  1.00  0.00    -0.207 OA
ENDROOT
BRANCH   1   3
HETATM    3  C   LIG     1      -0.935  -1.000  -0.246  1.00  0.00     0.308 C 
HETATM    4  O   LIG     1      -1.048  -2.208   0.104  1.00  0.00    -0.261 OA
BRANCH   3   5
HETATM    5  O   LIG     1      -2.041  -0.141  -0.187  1.00  0.00    -0.302 OA
BRANCH   5   6
HETATM    6  C   LIG     1      -3.297  -0.483   0.399  1.00  0.00     0.124 C 
HETATM    7  C   LIG     1      -4.384  -0.409  -0.671  1.00  0.00     0.033 C 
HETATM    8  C   LIG     1      -3.592   0.486   1.541  1.00  0.00     0.033 C 
ENDBRANCH   5   6
ENDBRANCH   3   5
ENDBRANCH   1   3
BRANCH   1   9
HETATM    9  C   LIG     1       0.618   0.982  -0.546  1.00  0.00     0.018 A 
HETATM   10  C   LIG     1       1.313   1.790  -1.470  1.00  0.00    -0.001 A 
HETATM   11  C   LIG     1       1.596   3.127  -1.178  1.00  0.00     0.006 A 
HETATM   12  C   LIG     1       1.210   3.675   0.046  1.00  0.00     0.035 A 
HETATM   13  C   LIG     1       0.550   2.881   0.987  1.00  0.00     0.006 A 
HETATM   14 BR   LIG     1       1.601   5.502   0.442  1.00  0.00    -0.049 Br
HETATM   15  C   LIG     1       0.267   1.543   0.701  1.00  0.00    -0.001 A 
ENDBRANCH   1   9
BRANCH   1  16
HETATM   16  C   LIG     1       1.564  -1.289  -0.325  1.00  0.00     0.018 A 
HETATM   17  C   LIG     1       2.566  -1.771  -1.195  1.00  0.00    -0.001 A 
HETATM   18  C   LIG     1       3.678  -2.454  -0.694  1.00  0.00     0.006 A 
HETATM   19  C   LIG     1       3.819  -2.655   0.681  1.00  0.00     0.035 A 
HETATM   20  C   LIG     1       2.848  -2.167   1.558  1.00  0.00     0.006 A 
HETATM   21 BR   LIG     1       5.342  -3.585   1.361  1.00  0.00    -0.049 Br
HETATM   22  C   LIG     1       1.734  -1.484   1.063  1.00  0.00    -0.001 A 
ENDBRANCH   1  16
TORSDOF 5
