REMARK  1 active torsions:
REMARK  status: ('A' for Active; 'I' for Inactive)
REMARK    1  A    between atoms: C_11  and  C_12 
ROOT
HETATM    1 CL   LIG     1       0.486   2.740   0.380  1.00  0.00    -0.081 Cl
HETATM    2  C   LIG     1       1.377   1.259   0.006  1.00  0.00     0.070 A 
HETATM    3  C   LIG     1       2.771   1.311  -0.172  1.00  0.00     0.080 A 
HETATM    4 CL   LIG     1       3.620   2.854  -0.049  1.00  0.00    -0.081 Cl
HETATM    5  C   LIG     1       3.490   0.135  -0.443  1.00  0.00     0.081 A 
HETATM    6 CL   LIG     1       5.240   0.202  -0.665  1.00  0.00    -0.081 Cl
HETATM    7  C   LIG     1       2.817  -1.095  -0.538  1.00  0.00     0.080 A 
HETATM    8 CL   LIG     1       3.723  -2.571  -0.883  1.00  0.00    -0.081 Cl
HETATM    9  C   LIG     1       1.424  -1.151  -0.362  1.00  0.00     0.070 A 
HETATM   10 CL   LIG     1       0.582  -2.699  -0.515  1.00  0.00    -0.081 Cl
HETATM   11  C   LIG     1       0.699   0.027  -0.089  1.00  0.00     0.023 A 
ENDROOT
BRANCH  11  12
HETATM   12  C   LIG     1      -0.766  -0.029   0.097  1.00  0.00     0.002 A 
HETATM   13  C   LIG     1      -1.625   0.474  -0.893  1.00  0.00     0.000 A 
HETATM   14  C   LIG     1      -3.010   0.420  -0.715  1.00  0.00     0.000 A 
HETATM   15  C   LIG     1      -3.546  -0.137   0.450  1.00  0.00     0.000 A 
HETATM   16  C   LIG     1      -2.696  -0.640   1.440  1.00  0.00     0.000 A 
HETATM   17  C   LIG     1      -1.309  -0.587   1.266  1.00  0.00     0.000 A 
ENDBRANCH  11  12
TORSDOF 1
