REMARK  5 active torsions:
REMARK  status: ('A' for Active; 'I' for Inactive)
REMARK    1  A    between atoms: C_2  and  N_4 
REMARK    2  A    between atoms: N_4  and  C_5 
REMARK    3  A    between atoms: C_5  and  C_6 
REMARK    4  A    between atoms: C_6  and  C_7 
REMARK    5  A    between atoms: C_9  and  C_10 
ROOT
HETATM    1  C   LIG     1       1.314   0.558  -0.341  1.00  0.00     0.010 A 
HETATM    2  C   LIG     1       2.368   0.460   0.581  1.00  0.00    -0.002 A 
HETATM    3  C   LIG     1       3.390  -0.493   0.414  1.00  0.00     0.036 A 
HETATM    4  C   LIG     1       3.358  -1.348  -0.712  1.00  0.00     0.129 A 
HETATM    5  O   LIG     1       4.360  -2.290  -0.959  1.00  0.00    -0.190 OA
HETATM    6  C   LIG     1       2.300  -1.255  -1.622  1.00  0.00     0.027 A 
HETATM    7  C   LIG     1       1.288  -0.310  -1.443  1.00  0.00     0.000 A 
ENDROOT
BRANCH   1   8
HETATM    8  C   LIG     1       0.242   1.615  -0.156  1.00  0.00     0.198 C 
HETATM    9  O   LIG     1      -0.059   2.240  -1.377  1.00  0.00    -0.216 OA
BRANCH   8  10
HETATM   10  C   LIG     1      -1.040   1.031   0.457  1.00  0.00     0.157 C 
BRANCH  10  11
HETATM   11  N   LIG     1      -1.690   0.092  -0.477  1.00  0.00    -0.296 NA
BRANCH  11  12
HETATM   12  C   LIG     1      -3.151  -0.087  -0.288  1.00  0.00     0.080 C 
HETATM   13  C   LIG     1      -3.618  -1.219  -1.229  1.00  0.00     0.024 C 
HETATM   14  C   LIG     1      -3.495  -0.485   1.166  1.00  0.00     0.024 C 
HETATM   15  C   LIG     1      -3.913   1.199  -0.684  1.00  0.00     0.024 C 
ENDBRANCH  11  12
ENDBRANCH  10  11
ENDBRANCH   8  10
ENDBRANCH   1   8
BRANCH   3  16
HETATM   16  C   LIG     1       4.509  -0.561   1.426  1.00  0.00     0.211 C 
HETATM   17  O   LIG     1       5.697  -0.061   0.874  1.00  0.00    -0.215 OA
ENDBRANCH   3  16
TORSDOF 5
