REMARK  0 active torsions:
REMARK  status: ('A' for Active; 'I' for Inactive)
ROOT
HETATM    1  N   LIG     1      -1.226   3.674   0.296  1.00  0.00    -0.191 NA
HETATM    2  C   LIG     1      -0.798   2.603   0.204  1.00  0.00     0.103 C 
HETATM    3  C   LIG     1      -0.262   1.265   0.090  1.00  0.00     0.091 A 
HETATM    4  C   LIG     1       1.127   1.072  -0.026  1.00  0.00     0.080 A 
HETATM    5 CL   LIG     1       2.220   2.461  -0.033  1.00  0.00    -0.081 Cl
HETATM    6  C   LIG     1       1.647  -0.230  -0.138  1.00  0.00     0.080 A 
HETATM    7 CL   LIG     1       3.390  -0.472  -0.284  1.00  0.00    -0.081 Cl
HETATM    8  C   LIG     1       0.782  -1.338  -0.133  1.00  0.00     0.080 A 
HETATM    9 CL   LIG     1       1.442  -2.972  -0.274  1.00  0.00    -0.081 Cl
HETATM   10  C   LIG     1      -0.607  -1.144  -0.017  1.00  0.00     0.091 A 
HETATM   11  C   LIG     1      -1.497  -2.283  -0.012  1.00  0.00     0.103 C 
HETATM   12  N   LIG     1      -2.209  -3.195  -0.009  1.00  0.00    -0.191 NA
HETATM   13  C   LIG     1      -1.131   0.158   0.095  1.00  0.00     0.079 A 
HETATM   14 CL   LIG     1      -2.878   0.401   0.241  1.00  0.00    -0.081 Cl
ENDROOT
TORSDOF 0
