REMARK  0 active torsions:
REMARK  status: ('A' for Active; 'I' for Inactive)
ROOT
HETATM    1  C   LIG     1       0.745   0.875   0.113  1.00  0.00     0.000 A 
HETATM    2  C   LIG     1       1.504   2.062   0.256  1.00  0.00     0.000 A 
HETATM    3  C   LIG     1       2.901   1.994   0.306  1.00  0.00     0.000 A 
HETATM    4  C   LIG     1       3.550   0.763   0.217  1.00  0.00     0.000 A 
HETATM    5  C   LIG     1       0.853   3.300   0.345  1.00  0.00     0.000 A 
HETATM    6  C   LIG     1      -0.540   3.370   0.295  1.00  0.00     0.000 A 
HETATM    7  C   LIG     1      -1.304   2.203   0.154  1.00  0.00     0.000 A 
HETATM    8  C   LIG     1      -2.701   2.276   0.103  1.00  0.00     0.000 A 
HETATM    9  C   LIG     1      -3.462   1.116  -0.037  1.00  0.00     0.000 A 
HETATM   10  C   LIG     1      -2.838  -0.136  -0.129  1.00  0.00     0.000 A 
HETATM   11  C   LIG     1      -3.612  -1.292  -0.269  1.00  0.00     0.000 A 
HETATM   12  C   LIG     1      -2.998  -2.536  -0.361  1.00  0.00     0.000 A 
HETATM   13  C   LIG     1      -1.608  -2.648  -0.315  1.00  0.00     0.000 A 
HETATM   14  C   LIG     1      -0.660   0.945   0.062  1.00  0.00     0.000 A 
HETATM   15  C   LIG     1      -1.424  -0.233  -0.080  1.00  0.00     0.000 A 
HETATM   16  C   LIG     1      -0.785  -1.502  -0.173  1.00  0.00     0.000 A 
HETATM   17  C   LIG     1       0.641  -1.574  -0.122  1.00  0.00     0.000 A 
HETATM   18  C   LIG     1       1.395  -0.375   0.022  1.00  0.00     0.000 A 
HETATM   19  C   LIG     1       2.812  -0.421   0.075  1.00  0.00     0.000 A 
HETATM   20  C   LIG     1       3.474  -1.649  -0.013  1.00  0.00     0.000 A 
HETATM   21  C   LIG     1       2.747  -2.826  -0.153  1.00  0.00     0.000 A 
HETATM   22  C   LIG     1       1.353  -2.797  -0.208  1.00  0.00     0.000 A 
ENDROOT
TORSDOF 0
