REMARK  5 active torsions:
REMARK  status: ('A' for Active; 'I' for Inactive)
REMARK    1  A    between atoms: C_2  and  N_3 
REMARK    2  A    between atoms: N_3  and  C_4 
REMARK    3  A    between atoms: C_6  and  N_7 
REMARK    4  A    between atoms: N_7  and  C_8 
REMARK    5  A    between atoms: N_7  and  C_10 
ROOT
HETATM    1  C   LIG     1       1.628   0.280   0.091  1.00  0.00     0.763 A 
HETATM    2  N   LIG     1       0.295   0.467  -0.082  1.00  0.00     0.132 NA
HETATM    3  C   LIG     1      -0.575  -0.569   0.063  1.00  0.00     0.745 A 
HETATM    4  N   LIG     1      -0.093  -1.801   0.380  1.00  0.00    -0.030 NA
HETATM    5  C   LIG     1       1.237  -1.992   0.557  1.00  0.00     0.259 A 
HETATM    6 CL   LIG     1       1.845  -3.580   0.969  1.00  0.00    -0.040 Cl
HETATM    7  N   LIG     1       2.097  -0.954   0.415  1.00  0.00    -0.028 NA
ENDROOT
BRANCH   3   8
HETATM    8  N   LIG     1      -1.993  -0.366  -0.129  1.00  0.00    -0.182 N 
BRANCH   8   9
HETATM    9  C   LIG     1      -2.925  -1.499  -0.012  1.00  0.00     0.120 C 
HETATM   10  C   LIG     1      -3.189  -1.831   1.454  1.00  0.00     0.027 C 
ENDBRANCH   8   9
BRANCH   8  11
HETATM   11  C   LIG     1      -2.503   0.960  -0.516  1.00  0.00     0.120 C 
HETATM   12  C   LIG     1      -2.551   1.893   0.690  1.00  0.00     0.027 C 
ENDBRANCH   8  11
ENDBRANCH   3   8
BRANCH   1  13
HETATM   13  N   LIG     1       2.525   1.388  -0.058  1.00  0.00    -0.085 NA
BRANCH  13  14
HETATM   14  C   LIG     1       3.975   1.259   0.072  1.00  0.00     0.145 C 
HETATM   15  C   LIG     1       4.567   0.572  -1.154  1.00  0.00     0.029 C 
ENDBRANCH  13  14
ENDBRANCH   1  13
TORSDOF 5
