REMARK  1 active torsions:
REMARK  status: ('A' for Active; 'I' for Inactive)
REMARK    1  A    between atoms: C_2  and  CA_3 
ROOT
HETATM    1  CA  LIG     1       1.019   0.286   0.162  1.00  0.00     0.158 A 
HETATM    2  N   LIG     1       0.382   1.326   0.760  1.00  0.00    -0.226 NA
HETATM    3  C   LIG     1      -0.967   1.431   0.823  1.00  0.00     0.150 A 
HETATM    4 CL   LIG     1      -1.660   2.832   1.627  1.00  0.00    -0.060 Cl
HETATM    5  C   LIG     1      -1.774   0.438   0.255  1.00  0.00     0.100 A 
HETATM    6 CL   LIG     1      -3.531   0.590   0.346  1.00  0.00    -0.079 Cl
HETATM    7  C   LIG     1      -1.166  -0.665  -0.379  1.00  0.00     0.095 A 
HETATM    8  N   LIG     1      -1.979  -1.696  -0.968  1.00  0.00    -0.099 NA
HETATM    9  C   LIG     1       0.247  -0.747  -0.429  1.00  0.00     0.095 A 
HETATM   10 CL   LIG     1       1.010  -2.131  -1.224  1.00  0.00    -0.080 Cl
ENDROOT
BRANCH   1  11
HETATM   11  C   LIG     1       2.501   0.313   0.174  1.00  0.00     0.230 C 
HETATM   12  O   LIG     1       3.189  -0.602  -0.352  1.00  0.00    -0.643 OA
HETATM   13  OXT LIG     1       3.153   1.381   0.785  1.00  0.00    -0.643 OA
ENDBRANCH   1  11
TORSDOF 1
