REMARK  2 active torsions:
REMARK  status: ('A' for Active; 'I' for Inactive)
REMARK    1  A    between atoms: C_2  and  C_4 
REMARK    2  A    between atoms: C_5  and  O_6 
ROOT
HETATM    1  C   LIG     1      -0.348   0.766  -0.163  1.00  0.00     0.098 A 
HETATM    2  C   LIG     1       0.001  -0.445   0.482  1.00  0.00     0.111 A 
HETATM    3  C   LIG     1      -0.917  -1.505   0.537  1.00  0.00     0.080 A 
HETATM    4 CL   LIG     1      -0.501  -3.007   1.348  1.00  0.00    -0.080 Cl
HETATM    5  C   LIG     1      -2.169  -1.381  -0.066  1.00  0.00     0.014 A 
HETATM    6  C   LIG     1      -2.518  -0.199  -0.717  1.00  0.00     0.013 A 
HETATM    7  C   LIG     1      -1.625   0.876  -0.768  1.00  0.00     0.066 A 
HETATM    8 CL   LIG     1      -2.182   2.357  -1.542  1.00  0.00    -0.082 Cl
ENDROOT
BRANCH   1   9
HETATM    9  C   LIG     1       0.609   1.898  -0.173  1.00  0.00     0.214 C 
HETATM   10  O   LIG     1       0.682   2.668  -1.168  1.00  0.00    -0.644 OA
HETATM   11  O   LIG     1       1.452   2.110   0.914  1.00  0.00    -0.644 OA
ENDBRANCH   1   9
BRANCH   2  12
HETATM   12  O   LIG     1       1.260  -0.611   1.065  1.00  0.00    -0.327 OA
HETATM   13  C   LIG     1       2.399  -0.953   0.284  1.00  0.00     0.181 C 
ENDBRANCH   2  12
TORSDOF 2
