REMARK  3 active torsions:
REMARK  status: ('A' for Active; 'I' for Inactive)
REMARK    1  A    between atoms: C_2  and  C_3 
REMARK       I    between atoms: C_2  and  N_5 
REMARK    2  A    between atoms: N_5  and  C_6 
REMARK    3  A    between atoms: N_5  and  C_9 
ROOT
HETATM    1  O   LIG     1       0.208   1.923  -1.812  1.00  0.00    -0.271 OA
HETATM    2  C   LIG     1      -0.688   1.567  -0.998  1.00  0.00     0.254 C 
HETATM    3  N   LIG     1      -0.487   0.378  -0.200  1.00  0.00    -0.300 N 
ENDROOT
BRANCH   3   4
HETATM    4  C   LIG     1      -1.599  -0.287   0.512  1.00  0.00     0.088 C 
HETATM    5  C   LIG     1      -1.581   0.075   2.001  1.00  0.00     0.025 C 
HETATM    6  C   LIG     1      -1.560  -1.809   0.322  1.00  0.00     0.025 C 
ENDBRANCH   3   4
BRANCH   3   7
HETATM    7  C   LIG     1       0.862  -0.091  -0.024  1.00  0.00     0.062 A 
HETATM    8  C   LIG     1       1.661   0.431   1.003  1.00  0.00     0.017 A 
HETATM    9  C   LIG     1       2.978  -0.011   1.162  1.00  0.00     0.002 A 
HETATM   10  C   LIG     1       3.505  -0.968   0.289  1.00  0.00     0.000 A 
HETATM   11  C   LIG     1       2.717  -1.480  -0.746  1.00  0.00     0.002 A 
HETATM   12  C   LIG     1       1.400  -1.038  -0.907  1.00  0.00     0.017 A 
ENDBRANCH   3   7
BRANCH   2  13
HETATM   13  C   LIG     1      -1.960   2.369  -0.920  1.00  0.00     0.183 C 
HETATM   14 CL   LIG     1      -1.713   4.056  -1.449  1.00  0.00    -0.103 Cl
ENDBRANCH   2  13
TORSDOF 3
