REMARK  0 active torsions:
REMARK  status: ('A' for Active; 'I' for Inactive)
ROOT
HETATM    1  C   LIG     1      -0.686  -0.916   0.028  1.00  0.00     0.000 A 
HETATM    2  C   LIG     1      -1.050   0.446  -0.069  1.00  0.00     0.000 A 
HETATM    3  C   LIG     1      -0.058   1.462  -0.049  1.00  0.00     0.000 A 
HETATM    4  C   LIG     1       1.318   1.097   0.071  1.00  0.00     0.000 A 
HETATM    5  C   LIG     1       1.686  -0.284   0.169  1.00  0.00     0.000 A 
HETATM    6  C   LIG     1       3.064  -0.609   0.286  1.00  0.00     0.000 A 
HETATM    7  C   LIG     1       4.043   0.379   0.307  1.00  0.00     0.000 A 
HETATM    8  C   LIG     1       3.687   1.713   0.212  1.00  0.00     0.000 A 
HETATM    9  C   LIG     1       2.350   2.074   0.096  1.00  0.00     0.000 A 
HETATM   10  C   LIG     1       0.676  -1.294   0.147  1.00  0.00     0.000 A 
HETATM   11  C   LIG     1       0.973  -2.680   0.240  1.00  0.00     0.000 A 
HETATM   12  C   LIG     1      -0.036  -3.641   0.216  1.00  0.00     0.000 A 
HETATM   13  C   LIG     1      -1.365  -3.262   0.099  1.00  0.00     0.000 A 
HETATM   14  C   LIG     1      -1.703  -1.910   0.005  1.00  0.00     0.000 A 
HETATM   15  C   LIG     1      -3.048  -1.543  -0.113  1.00  0.00     0.000 A 
HETATM   16  C   LIG     1      -3.405  -0.203  -0.208  1.00  0.00     0.000 A 
HETATM   17  C   LIG     1      -2.423   0.793  -0.187  1.00  0.00     0.000 A 
HETATM   18  C   LIG     1      -2.803   2.135  -0.284  1.00  0.00     0.000 A 
HETATM   19  C   LIG     1      -1.840   3.133  -0.265  1.00  0.00     0.000 A 
HETATM   20  C   LIG     1      -0.490   2.811  -0.150  1.00  0.00     0.000 A 
ENDROOT
TORSDOF 0
