REMARK  1 active torsions:
REMARK  status: ('A' for Active; 'I' for Inactive)
REMARK    1  A    between atoms: C_4  and  C_5 
ROOT
HETATM    1 CL   LIG     1      -2.142   2.836   0.494  1.00  0.00    -0.061 Cl
HETATM    2  C   LIG     1      -1.329   1.310   0.216  1.00  0.00     0.138 A 
HETATM    3  N   LIG     1       0.029   1.254   0.256  1.00  0.00    -0.235 NA
HETATM    4  C   LIG     1       0.715   0.093   0.046  1.00  0.00     0.102 A 
HETATM    5  C   LIG     1      -0.003  -1.086  -0.220  1.00  0.00     0.018 A 
HETATM    6  C   LIG     1      -1.397  -1.048  -0.266  1.00  0.00     0.004 A 
HETATM    7  C   LIG     1      -2.068   0.155  -0.047  1.00  0.00     0.031 A 
ENDROOT
BRANCH   4   8
HETATM    8  C   LIG     1       2.225   0.077   0.100  1.00  0.00     0.233 C 
HETATM    9 CL   LIG     1       2.778  -1.039   1.376  1.00  0.00    -0.077 Cl
HETATM   10 CL   LIG     1       2.885  -0.462  -1.466  1.00  0.00    -0.077 Cl
HETATM   11 CL   LIG     1       2.901   1.694   0.453  1.00  0.00    -0.077 Cl
ENDBRANCH   4   8
TORSDOF 1
