REMARK  2 active torsions:
REMARK  status: ('A' for Active; 'I' for Inactive)
REMARK    1  A    between atoms: C_2  and  C_3 
REMARK    2  A    between atoms: C_3  and  C_5 
ROOT
HETATM    1  C   LIG     1       0.657  -0.576  -0.084  1.00  0.00     0.033 C 
HETATM    2  C   LIG     1       1.552  -0.681   1.162  1.00  0.00     0.003 C 
ENDROOT
BRANCH   1   3
HETATM    3  C   LIG     1       1.168   0.525  -1.040  1.00  0.00     0.182 C 
HETATM    4  O   LIG     1       1.287   1.756  -0.381  1.00  0.00    -0.221 OA
ENDBRANCH   1   3
BRANCH   1   5
HETATM    5  C   LIG     1      -0.855  -0.464   0.294  1.00  0.00     0.003 C 
HETATM    6  C   LIG     1      -1.767  -0.800  -0.896  1.00  0.00     0.000 C 
HETATM    7  C   LIG     1      -1.255   0.892   0.896  1.00  0.00     0.000 C 
ENDBRANCH   1   5
TORSDOF 2
