REMARK  4 active torsions:
REMARK  status: ('A' for Active; 'I' for Inactive)
REMARK    1  A    between atoms: C_2  and  O_3 
REMARK    2  A    between atoms: O_3  and  C_4 
REMARK    3  A    between atoms: C_6  and  N_7 
REMARK    4  A    between atoms: C_9  and  C_10 
ROOT
HETATM    1  C   LIG     1      -2.791  -1.137  -0.812  1.00  0.00     0.106 A 
HETATM    2  C   LIG     1      -1.651  -0.402  -0.433  1.00  0.00     0.045 A 
HETATM    3  C   LIG     1      -0.374  -0.756  -0.904  1.00  0.00     0.101 A 
HETATM    4  C   LIG     1      -0.241  -1.870  -1.759  1.00  0.00     0.076 A 
HETATM    5  C   LIG     1      -1.372  -2.604  -2.128  1.00  0.00     0.026 A 
HETATM    6  C   LIG     1      -2.638  -2.244  -1.658  1.00  0.00     0.081 A 
HETATM    7 CL   LIG     1      -4.035  -3.190  -2.149  1.00  0.00    -0.080 Cl
HETATM    8 CL   LIG     1       1.313  -2.341  -2.436  1.00  0.00    -0.081 Cl
ENDROOT
BRANCH   3   9
HETATM    9  N   LIG     1       0.775   0.004  -0.492  1.00  0.00    -0.171 N 
HETATM   10  C   LIG     1       0.891   1.340  -0.373  1.00  0.00     0.395 A 
HETATM   11  O   LIG     1       2.081   1.675   0.057  1.00  0.00    -0.242 OA
HETATM   12  O   LIG     1      -0.014   2.168  -0.660  1.00  0.00    -0.236 OA
HETATM   13  C   LIG     1       2.718   0.530   0.212  1.00  0.00     0.182 A 
HETATM   14  N   LIG     1       1.931  -0.519  -0.117  1.00  0.00    -0.140 NA
BRANCH  13  15
HETATM   15  C   LIG     1       4.143   0.394   0.700  1.00  0.00     0.059 C 
HETATM   16  C   LIG     1       4.151  -0.398   2.019  1.00  0.00     0.008 C 
HETATM   17  C   LIG     1       4.763   1.785   0.937  1.00  0.00     0.008 C 
HETATM   18  C   LIG     1       4.970  -0.355  -0.361  1.00  0.00     0.008 C 
ENDBRANCH  13  15
ENDBRANCH   3   9
BRANCH   1  19
HETATM   19  O   LIG     1      -4.083  -0.812  -0.362  1.00  0.00    -0.332 OA
BRANCH  19  20
HETATM   20  C   LIG     1      -4.451   0.370   0.353  1.00  0.00     0.122 C 
HETATM   21  C   LIG     1      -5.864   0.186   0.902  1.00  0.00     0.033 C 
HETATM   22  C   LIG     1      -4.400   1.592  -0.571  1.00  0.00     0.033 C 
ENDBRANCH  19  20
ENDBRANCH   1  19
TORSDOF 4
