REMARK  0 active torsions:
REMARK  status: ('A' for Active; 'I' for Inactive)
ROOT
HETATM    1  C   LIG     1      -0.743  -1.219   0.056  1.00  0.00     0.000 A 
HETATM    2  C   LIG     1      -1.533  -2.398   0.104  1.00  0.00     0.000 A 
HETATM    3  C   LIG     1      -2.920  -2.345  -0.006  1.00  0.00     0.000 A 
HETATM    4  C   LIG     1      -3.566  -1.130  -0.167  1.00  0.00     0.000 A 
HETATM    5  C   LIG     1      -2.829   0.056  -0.220  1.00  0.00     0.000 A 
HETATM    6  C   LIG     1      -3.502   1.270  -0.382  1.00  0.00     0.000 A 
HETATM    7  C   LIG     1      -2.791   2.459  -0.438  1.00  0.00     0.000 A 
HETATM    8  C   LIG     1      -1.403   2.456  -0.332  1.00  0.00     0.000 A 
HETATM    9  C   LIG     1      -0.677   1.248  -0.166  1.00  0.00     0.000 A 
HETATM   10  C   LIG     1       0.743   1.219  -0.056  1.00  0.00     0.000 A 
HETATM   11  C   LIG     1       1.409  -0.028   0.109  1.00  0.00     0.000 A 
HETATM   12  C   LIG     1       2.829  -0.056   0.220  1.00  0.00     0.000 A 
HETATM   13  C   LIG     1       3.502  -1.270   0.382  1.00  0.00     0.000 A 
HETATM   14  C   LIG     1       2.791  -2.459   0.438  1.00  0.00     0.000 A 
HETATM   15  C   LIG     1       1.403  -2.456   0.332  1.00  0.00     0.000 A 
HETATM   16  C   LIG     1       0.677  -1.248   0.166  1.00  0.00     0.000 A 
HETATM   17  C   LIG     1       3.566   1.130   0.167  1.00  0.00     0.000 A 
HETATM   18  C   LIG     1       2.920   2.345   0.006  1.00  0.00     0.000 A 
HETATM   19  C   LIG     1       1.533   2.398  -0.104  1.00  0.00     0.000 A 
HETATM   20  C   LIG     1      -1.409   0.028  -0.109  1.00  0.00     0.000 A 
ENDROOT
TORSDOF 0
