REMARK  2 active torsions:
REMARK  status: ('A' for Active; 'I' for Inactive)
REMARK       I    between atoms: C_2  and  N_10 
REMARK       I    between atoms: C_2  and  N_3 
REMARK    1  A    between atoms: N_3  and  C_4 
REMARK    2  A    between atoms: N_10  and  C_11 
ROOT
HETATM    1  O   LIG     1       0.958   1.232  -0.353  1.00  0.00    -0.243 OA
HETATM    2  C   LIG     1       0.907  -0.025  -0.271  1.00  0.00     0.364 C 
HETATM    3  N   LIG     1       2.089  -0.815  -0.475  1.00  0.00    -0.191 NA
HETATM    4  N   LIG     1      -0.344  -0.678  -0.014  1.00  0.00    -0.219 NA
ENDROOT
BRANCH   4   5
HETATM    5  C   LIG     1      -1.606   0.059   0.112  1.00  0.00     0.108 C 
HETATM    6  C   LIG     1      -2.226   0.253  -1.294  1.00  0.00     0.025 C 
HETATM    7  C   LIG     1      -3.764   0.344  -1.288  1.00  0.00     0.002 C 
HETATM    8  C   LIG     1      -4.283   0.971   0.007  1.00  0.00     0.000 C 
HETATM    9  C   LIG     1      -3.901   0.130   1.240  1.00  0.00     0.002 C 
HETATM   10  C   LIG     1      -2.583  -0.672   1.067  1.00  0.00     0.023 C 
HETATM   11  C   LIG     1      -1.946  -0.939   2.440  1.00  0.00     0.002 C 
ENDBRANCH   4   5
BRANCH   3  12
HETATM   12  C   LIG     1       3.421  -0.275  -0.531  1.00  0.00     0.086 A 
HETATM   13  C   LIG     1       4.377  -0.888  -1.356  1.00  0.00     0.019 A 
HETATM   14  C   LIG     1       5.685  -0.396  -1.410  1.00  0.00     0.002 A 
HETATM   15  C   LIG     1       6.053   0.703  -0.629  1.00  0.00     0.000 A 
HETATM   16  C   LIG     1       5.115   1.305   0.213  1.00  0.00     0.002 A 
HETATM   17  C   LIG     1       3.806   0.817   0.270  1.00  0.00     0.019 A 
ENDBRANCH   3  12
TORSDOF 2
