REMARK  0 active torsions:
REMARK  status: ('A' for Active; 'I' for Inactive)
ROOT
HETATM    1 CL   LIG     1       0.211   3.190  -0.281  1.00  0.00    -0.081 Cl
HETATM    2  C   LIG     1      -0.034   1.456  -0.132  1.00  0.00     0.078 A 
HETATM    3  C   LIG     1      -1.334   0.934  -0.121  1.00  0.00     0.025 A 
HETATM    4  C   LIG     1      -1.555  -0.449  -0.003  1.00  0.00     0.071 A 
HETATM    5 CL   LIG     1      -3.211  -1.041   0.005  1.00  0.00    -0.081 Cl
HETATM    6  C   LIG     1      -0.467  -1.337   0.107  1.00  0.00     0.088 A 
HETATM    7 CL   LIG     1      -0.724  -3.074   0.256  1.00  0.00    -0.080 Cl
HETATM    8  C   LIG     1       0.834  -0.820   0.097  1.00  0.00     0.121 A 
HETATM    9  N   LIG     1       1.941  -1.601   0.197  1.00  0.00    -0.189 NA
HETATM   10  S   LIG     1       3.124  -0.448   0.126  1.00  0.00     0.117 SA
HETATM   11  N   LIG     1       2.343   1.002  -0.025  1.00  0.00    -0.190 NA
HETATM   12  C   LIG     1       1.052   0.582  -0.023  1.00  0.00     0.120 A 
ENDROOT
TORSDOF 0
