REMARK  3 active torsions:
REMARK  status: ('A' for Active; 'I' for Inactive)
REMARK       I    between atoms: C_2  and  N_6 
REMARK       I    between atoms: C_2  and  N_3 
REMARK    1  A    between atoms: N_6  and  C_7 
REMARK    2  A    between atoms: C_10  and  O_11 
REMARK    3  A    between atoms: O_11  and  C_12 
ROOT
HETATM    1  C   LIG     1      -1.229   0.904   0.170  1.00  0.00     0.086 A 
HETATM    2  C   LIG     1      -0.447  -0.265   0.202  1.00  0.00     0.021 A 
HETATM    3  C   LIG     1       0.915  -0.196   0.507  1.00  0.00     0.026 A 
HETATM    4  C   LIG     1       1.524   1.046   0.760  1.00  0.00     0.100 A 
HETATM    5  C   LIG     1       0.746   2.208   0.729  1.00  0.00     0.026 A 
HETATM    6  C   LIG     1      -0.616   2.141   0.422  1.00  0.00     0.021 A 
ENDROOT
BRANCH   4   7
HETATM    7  O   LIG     1       2.883   1.154   1.088  1.00  0.00    -0.307 OA
BRANCH   7   8
HETATM    8  C   LIG     1       3.901   0.306   0.626  1.00  0.00     0.100 A 
HETATM    9  C   LIG     1       5.022   0.097   1.438  1.00  0.00     0.026 A 
HETATM   10  C   LIG     1       6.065  -0.730   1.007  1.00  0.00     0.013 A 
HETATM   11  C   LIG     1       5.998  -1.345  -0.247  1.00  0.00     0.058 A 
HETATM   12  C   LIG     1       4.891  -1.125  -1.073  1.00  0.00     0.013 A 
HETATM   13 CL   LIG     1       7.306  -2.380  -0.789  1.00  0.00    -0.082 Cl
HETATM   14  C   LIG     1       3.848  -0.299  -0.643  1.00  0.00     0.026 A 
ENDBRANCH   7   8
ENDBRANCH   4   7
BRANCH   1  15
HETATM   15  N   LIG     1      -2.627   0.863  -0.166  1.00  0.00    -0.193 NA
HETATM   16  C   LIG     1      -3.497  -0.233   0.169  1.00  0.00     0.346 C 
HETATM   17  O   LIG     1      -3.162  -1.037   1.082  1.00  0.00    -0.245 OA
HETATM   18  N   LIG     1      -4.764  -0.406  -0.501  1.00  0.00    -0.297 N 
HETATM   19  C   LIG     1      -5.135   0.453  -1.629  1.00  0.00     0.130 C 
HETATM   20  C   LIG     1      -5.661  -1.482  -0.068  1.00  0.00     0.130 C 
ENDBRANCH   1  15
TORSDOF 3
