REMARK  6 active torsions:
REMARK  status: ('A' for Active; 'I' for Inactive)
REMARK       I    between atoms: C_2  and  N_6 
REMARK    1  A    between atoms: C_2  and  S_3 
REMARK    2  A    between atoms: S_3  and  C_4 
REMARK    3  A    between atoms: N_6  and  C_7 
REMARK    4  A    between atoms: N_6  and  C_11 
REMARK    5  A    between atoms: C_7  and  C_8 
REMARK    6  A    between atoms: C_11  and  C_12 
ROOT
HETATM    1  O   LIG     1       1.246   1.303  -1.791  1.00  0.00    -0.260 OA
HETATM    2  C   LIG     1       1.121   0.273  -1.077  1.00  0.00     0.284 C 
HETATM    3  N   LIG     1       0.255   0.294   0.080  1.00  0.00    -0.312 N 
ENDROOT
BRANCH   3   4
HETATM    4  C   LIG     1      -0.286  -0.953   0.655  1.00  0.00     0.105 C 
BRANCH   4   5
HETATM    5  C   LIG     1      -1.571  -1.428  -0.066  1.00  0.00     0.022 C 
HETATM    6  C   LIG     1      -1.304  -1.896  -1.502  1.00  0.00     0.002 C 
HETATM    7  C   LIG     1      -2.229  -2.562   0.733  1.00  0.00     0.002 C 
ENDBRANCH   4   5
ENDBRANCH   3   4
BRANCH   3   8
HETATM    8  C   LIG     1       0.086   1.559   0.817  1.00  0.00     0.105 C 
BRANCH   8   9
HETATM    9  C   LIG     1      -1.349   2.110   0.698  1.00  0.00     0.022 C 
HETATM   10  C   LIG     1      -1.717   2.410  -0.761  1.00  0.00     0.002 C 
HETATM   11  C   LIG     1      -1.501   3.377   1.549  1.00  0.00     0.002 C 
ENDBRANCH   8   9
ENDBRANCH   3   8
BRANCH   2  12
HETATM   12  S   LIG     1       2.072  -1.187  -1.518  1.00  0.00    -0.055 SA
BRANCH  12  13
HETATM   13  C   LIG     1       3.466  -0.742  -0.433  1.00  0.00     0.067 C 
HETATM   14  C   LIG     1       4.544  -1.813  -0.506  1.00  0.00     0.013 C 
ENDBRANCH  12  13
ENDBRANCH   2  12
TORSDOF 6
