REMARK  5 active torsions:
REMARK  status: ('A' for Active; 'I' for Inactive)
REMARK    1  A    between atoms: O_2  and  C_3 
REMARK       I    between atoms: N_7  and  C_15 
REMARK    2  A    between atoms: C_10  and  C_11 
REMARK    3  A    between atoms: C_11  and  C_12 
REMARK    4  A    between atoms: C_15  and  C_16 
REMARK    5  A    between atoms: C_17  and  C_18 
ROOT
HETATM    1  C   LIG     1      -3.152   1.964  -0.183  1.00  0.00     0.094 A 
HETATM    2  C   LIG     1      -3.384   0.576  -0.206  1.00  0.00     0.025 A 
HETATM    3  C   LIG     1      -2.302  -0.282  -0.007  1.00  0.00     0.016 A 
HETATM    4  C   LIG     1      -1.032   0.192   0.199  1.00  0.00     0.066 A 
HETATM    5  N   LIG     1      -0.153  -0.827   0.310  1.00  0.00    -0.279 N 
HETATM    6  C   LIG     1      -0.882  -1.970   0.197  1.00  0.00     0.041 A 
HETATM    7  C   LIG     1      -0.310  -3.358   0.246  1.00  0.00     0.050 C 
HETATM    8  C   LIG     1      -2.231  -1.664  -0.004  1.00  0.00     0.002 A 
HETATM    9  C   LIG     1       1.265  -0.701   0.488  1.00  0.00     0.265 C 
HETATM   10  O   LIG     1       1.704  -0.065   1.484  1.00  0.00    -0.267 OA
HETATM   11  C   LIG     1      -0.762   1.563   0.218  1.00  0.00     0.020 A 
HETATM   12  C   LIG     1      -1.834   2.452   0.031  1.00  0.00     0.026 A 
ENDROOT
BRANCH   9  13
HETATM   13  C   LIG     1       2.193  -1.326  -0.483  1.00  0.00     0.061 C 
HETATM   14  C   LIG     1       3.495  -1.031  -0.619  1.00  0.00     0.005 C 
BRANCH  14  15
HETATM   15  C   LIG     1       4.189   0.093   0.042  1.00  0.00     0.000 A 
HETATM   16  C   LIG     1       3.679   1.403  -0.025  1.00  0.00     0.000 A 
HETATM   17  C   LIG     1       4.377   2.461   0.566  1.00  0.00     0.000 A 
HETATM   18  C   LIG     1       5.596   2.224   1.207  1.00  0.00     0.000 A 
HETATM   19  C   LIG     1       6.124   0.931   1.250  1.00  0.00     0.000 A 
HETATM   20  C   LIG     1       5.429  -0.130   0.660  1.00  0.00     0.000 A 
ENDBRANCH  14  15
ENDBRANCH   9  13
BRANCH   8  21
HETATM   21  C   LIG     1      -3.355  -2.625  -0.291  1.00  0.00     0.125 C 
BRANCH  21  22
HETATM   22  C   LIG     1      -3.461  -2.965  -1.752  1.00  0.00     0.190 C 
HETATM   23  O   LIG     1      -4.449  -3.842  -2.188  1.00  0.00    -0.647 OA
HETATM   24  O   LIG     1      -2.666  -2.468  -2.596  1.00  0.00    -0.647 OA
ENDBRANCH  21  22
ENDBRANCH   8  21
BRANCH   1  25
HETATM   25  O   LIG     1      -4.245   2.821  -0.378  1.00  0.00    -0.328 OA
HETATM   26  C   LIG     1      -4.161   4.242  -0.382  1.00  0.00     0.181 C 
ENDBRANCH   1  25
TORSDOF 5
