REMARK  8 active torsions:
REMARK  status: ('A' for Active; 'I' for Inactive)
REMARK    1  A    between atoms: C_2  and  C_3 
REMARK    2  A    between atoms: C_3  and  C_4 
REMARK    3  A    between atoms: C_4  and  C_5 
REMARK    4  A    between atoms: C_5  and  C_6 
REMARK    5  A    between atoms: C_6  and  C_7 
REMARK    6  A    between atoms: C_7  and  C_8 
REMARK    7  A    between atoms: C_8  and  O_9 
REMARK    8  A    between atoms: O_9  and  C_10 
ROOT
HETATM    1  C   LIG     1       0.904  -1.101  -0.700  1.00  0.00     0.003 C 
ENDROOT
BRANCH   1   2
HETATM    2  C   LIG     1      -0.332  -0.190  -0.697  1.00  0.00     0.000 C 
BRANCH   2   3
HETATM    3  C   LIG     1      -1.362  -0.666   0.335  1.00  0.00     0.000 C 
BRANCH   3   4
HETATM    4  C   LIG     1      -2.591   0.250   0.349  1.00  0.00     0.000 C 
BRANCH   4   5
HETATM    5  C   LIG     1      -3.620  -0.226   1.381  1.00  0.00     0.000 C 
HETATM    6  C   LIG     1      -4.846   0.683   1.398  1.00  0.00     0.000 C 
ENDBRANCH   4   5
ENDBRANCH   3   4
ENDBRANCH   2   3
ENDBRANCH   1   2
BRANCH   1   7
HETATM    7  C   LIG     1       1.899  -0.749  -1.819  1.00  0.00     0.033 C 
BRANCH   7   8
HETATM    8  C   LIG     1       2.577   0.617  -1.634  1.00  0.00     0.153 C 
BRANCH   8   9
HETATM    9  O   LIG     1       3.196   0.729  -0.352  1.00  0.00    -0.287 OA
BRANCH   9  10
HETATM   10  C   LIG     1       4.358   0.040   0.008  1.00  0.00     0.373 C 
HETATM   11  N   LIG     1       4.860   0.156   1.336  1.00  0.00    -0.032 NA
HETATM   12  O   LIG     1       4.972  -0.675  -0.831  1.00  0.00    -0.242 OA
ENDBRANCH   9  10
ENDBRANCH   8   9
ENDBRANCH   7   8
ENDBRANCH   1   7
TORSDOF 8
