REMARK  3 active torsions:
REMARK  status: ('A' for Active; 'I' for Inactive)
REMARK       I    between atoms: N_2  and  C_3 
REMARK    1  A    between atoms: C_3  and  O_4 
REMARK    2  A    between atoms: O_4  and  C_5 
REMARK    3  A    between atoms: C_8  and  N_12 
ROOT
HETATM    1  C   LIG     1       1.150  -0.312  -0.042  1.00  0.00     0.105 A 
HETATM    2  C   LIG     1       0.629   0.916  -0.484  1.00  0.00     0.026 A 
HETATM    3  C   LIG     1      -0.751   1.104  -0.572  1.00  0.00     0.019 A 
HETATM    4  C   LIG     1      -1.635   0.071  -0.231  1.00  0.00     0.052 A 
HETATM    5  C   LIG     1      -1.120  -1.182   0.171  1.00  0.00    -0.004 A 
HETATM    6  C   LIG     1      -2.034  -2.325   0.520  1.00  0.00     0.033 C 
HETATM    7  C   LIG     1       0.271  -1.355   0.270  1.00  0.00     0.022 A 
ENDROOT
BRANCH   1   8
HETATM    8  O   LIG     1       2.529  -0.549   0.059  1.00  0.00    -0.258 OA
BRANCH   8   9
HETATM    9  C   LIG     1       3.501   0.422   0.335  1.00  0.00     0.388 C 
HETATM   10  N   LIG     1       4.879   0.107   0.116  1.00  0.00    -0.210 NA
HETATM   11  C   LIG     1       5.943   1.062   0.400  1.00  0.00     0.158 C 
HETATM   12  O   LIG     1       3.177   1.542   0.818  1.00  0.00    -0.236 OA
ENDBRANCH   8   9
ENDBRANCH   1   8
BRANCH   4  13
HETATM   13  N   LIG     1      -3.050   0.303  -0.310  1.00  0.00    -0.345 N 
HETATM   14  C   LIG     1      -3.677   0.485  -1.618  1.00  0.00     0.126 C 
HETATM   15  C   LIG     1      -3.864   0.344   0.904  1.00  0.00     0.126 C 
ENDBRANCH   4  13
TORSDOF 3
