REMARK  2 active torsions:
REMARK  status: ('A' for Active; 'I' for Inactive)
REMARK    1  A    between atoms: C_2  and  C_3 
REMARK    2  A    between atoms: C_3  and  C_4 
ROOT
HETATM    1  C   LIG     1      -0.313   0.314   0.572  1.00  0.00     0.000 C 
HETATM    2  C   LIG     1      -0.950  -1.066   0.425  1.00  0.00     0.000 C 
HETATM    3  C   LIG     1      -2.450  -0.855   0.602  1.00  0.00     0.000 C 
HETATM    4  C   LIG     1      -2.709   0.644   0.459  1.00  0.00     0.000 C 
HETATM    5  C   LIG     1      -1.382   1.281   0.077  1.00  0.00     0.000 C 
ENDROOT
BRANCH   1   6
HETATM    6  C   LIG     1       1.009   0.467  -0.206  1.00  0.00     0.000 C 
BRANCH   6   7
HETATM    7  C   LIG     1       2.122  -0.413   0.380  1.00  0.00     0.000 C 
HETATM    8  C   LIG     1       3.438  -0.204  -0.364  1.00  0.00     0.000 C 
ENDBRANCH   6   7
ENDBRANCH   1   6
TORSDOF 2
