REMARK  1 active torsions:
REMARK  status: ('A' for Active; 'I' for Inactive)
REMARK    1  A    between atoms: S_2  and  C_3 
ROOT
HETATM    1  C   LIG     1       1.245  -0.187  -0.722  1.00  0.00     0.128 A 
HETATM    2  N   LIG     1       0.451   0.903  -0.542  1.00  0.00    -0.217 NA
HETATM    3  C   LIG     1      -0.876   0.765  -0.284  1.00  0.00     0.184 A 
HETATM    4  N   LIG     1      -1.663   1.856  -0.103  1.00  0.00    -0.203 NA
HETATM    5  C   LIG     1      -2.991   1.716   0.155  1.00  0.00     0.201 A 
HETATM    6  N   LIG     1      -3.547   0.476   0.236  1.00  0.00    -0.221 NA
HETATM    7  C   LIG     1      -2.795  -0.644   0.061  1.00  0.00     0.123 A 
HETATM    8  C   LIG     1      -1.432  -0.522  -0.205  1.00  0.00     0.136 A 
HETATM    9  N   LIG     1      -0.641  -1.611  -0.387  1.00  0.00    -0.237 NA
HETATM   10  C   LIG     1       0.687  -1.470  -0.646  1.00  0.00     0.124 A 
ENDROOT
BRANCH   1  11
HETATM   11  S   LIG     1       2.990   0.028  -1.064  1.00  0.00    -0.092 SA
HETATM   12  C   LIG     1       3.456   0.017   0.695  1.00  0.00     0.076 C 
ENDBRANCH   1  11
TORSDOF 1
