REMARK  1 active torsions:
REMARK  status: ('A' for Active; 'I' for Inactive)
REMARK    1  A    between atoms: O_2  and  C_3 
ROOT
HETATM    1  C   LIG     1       1.317   0.480  -0.106  1.00  0.00     0.199 A 
HETATM    2  N   LIG     1       0.518  -0.572  -0.444  1.00  0.00    -0.200 NA
HETATM    3  C   LIG     1      -0.828  -0.424  -0.544  1.00  0.00     0.185 A 
HETATM    4  N   LIG     1      -1.617  -1.477  -0.881  1.00  0.00    -0.203 NA
HETATM    5  C   LIG     1      -2.966  -1.327  -0.981  1.00  0.00     0.201 A 
HETATM    6  N   LIG     1      -3.540  -0.117  -0.742  1.00  0.00    -0.221 NA
HETATM    7  C   LIG     1      -2.788   0.964  -0.402  1.00  0.00     0.123 A 
HETATM    8  C   LIG     1      -1.404   0.831  -0.294  1.00  0.00     0.136 A 
HETATM    9  N   LIG     1      -0.611   1.881   0.043  1.00  0.00    -0.236 NA
HETATM   10  C   LIG     1       0.737   1.731   0.142  1.00  0.00     0.143 A 
ENDROOT
BRANCH   1  11
HETATM   11  O   LIG     1       2.703   0.328  -0.003  1.00  0.00    -0.311 OA
HETATM   12  C   LIG     1       3.359  -0.912  -0.241  1.00  0.00     0.183 C 
ENDBRANCH   1  11
TORSDOF 1
