REMARK  2 active torsions:
REMARK  status: ('A' for Active; 'I' for Inactive)
REMARK    1  A    between atoms: C_2  and  C_10 
REMARK    2  A    between atoms: C_2  and  C_4 
ROOT
HETATM    1  C   LIG     1       0.587  -0.051  -0.193  1.00  0.00    -0.022 A 
HETATM    2  C   LIG     1       1.200   0.977  -0.950  1.00  0.00    -0.004 A 
HETATM    3  C   LIG     1       2.539   1.320  -0.741  1.00  0.00    -0.000 A 
HETATM    4  C   LIG     1       3.295   0.651   0.221  1.00  0.00     0.000 A 
HETATM    5  C   LIG     1       2.714  -0.366   0.976  1.00  0.00    -0.000 A 
HETATM    6  C   LIG     1       1.377  -0.716   0.773  1.00  0.00    -0.004 A 
ENDROOT
BRANCH   1   7
HETATM    7  C   LIG     1      -0.890  -0.462  -0.384  1.00  0.00     0.019 C 
HETATM    8  C   LIG     1      -0.934  -1.938  -0.840  1.00  0.00     0.004 C 
HETATM    9  C   LIG     1      -1.617   0.368  -1.474  1.00  0.00     0.004 C 
BRANCH   7  10
HETATM   10  C   LIG     1      -1.677  -0.336   0.958  1.00  0.00     0.003 C 
HETATM   11  C   LIG     1      -1.639   1.062   1.587  1.00  0.00     0.000 C 
ENDBRANCH   7  10
ENDBRANCH   1   7
TORSDOF 2
