REMARK  0 active torsions:
REMARK  status: ('A' for Active; 'I' for Inactive)
ROOT
HETATM    1  C   LIG     1       0.078  -1.292  -0.089  1.00  0.00     0.000 A 
HETATM    2  C   LIG     1       0.995  -2.335  -0.130  1.00  0.00     0.000 A 
HETATM    3  C   LIG     1       2.355  -2.031  -0.030  1.00  0.00     0.000 A 
HETATM    4  C   LIG     1       2.786  -0.695   0.123  1.00  0.00     0.000 A 
HETATM    5  C   LIG     1       1.838   0.373   0.172  1.00  0.00     0.000 A 
HETATM    6  C   LIG     1       2.310   1.685   0.360  1.00  0.00     0.000 A 
HETATM    7  C   LIG     1       3.679   1.939   0.471  1.00  0.00     0.000 A 
HETATM    8  C   LIG     1       4.599   0.894   0.404  1.00  0.00     0.000 A 
HETATM    9  C   LIG     1       4.158  -0.418   0.234  1.00  0.00     0.000 A 
HETATM   10  C   LIG     1       0.468   0.045   0.043  1.00  0.00     0.000 A 
HETATM   11  C   LIG     1      -0.789   0.846   0.015  1.00  0.00     0.000 A 
HETATM   12  C   LIG     1      -1.817  -0.061  -0.112  1.00  0.00     0.000 A 
HETATM   13  C   LIG     1      -3.159   0.284  -0.191  1.00  0.00     0.000 A 
HETATM   14  C   LIG     1      -4.097  -0.757  -0.331  1.00  0.00     0.000 A 
HETATM   15  C   LIG     1      -3.651  -2.100  -0.396  1.00  0.00     0.000 A 
HETATM   16  C   LIG     1      -2.274  -2.408  -0.323  1.00  0.00     0.000 A 
HETATM   17  C   LIG     1      -1.375  -1.350  -0.180  1.00  0.00     0.000 A 
HETATM   18  C   LIG     1      -3.485   1.649  -0.138  1.00  0.00     0.000 A 
HETATM   19  C   LIG     1      -2.454   2.609  -0.022  1.00  0.00     0.000 A 
HETATM   20  C   LIG     1      -1.098   2.217   0.048  1.00  0.00     0.000 A 
ENDROOT
TORSDOF 0
