REMARK  0 active torsions:
REMARK  status: ('A' for Active; 'I' for Inactive)
ROOT
HETATM    1  C   LIG     1      -0.230   0.564   0.053  1.00  0.00     0.000 A 
HETATM    2  C   LIG     1      -0.393  -0.788  -0.083  1.00  0.00     0.000 A 
HETATM    3  C   LIG     1      -1.836  -1.032  -0.123  1.00  0.00     0.000 A 
HETATM    4  C   LIG     1      -2.559  -2.216  -0.249  1.00  0.00     0.000 A 
HETATM    5  C   LIG     1      -3.963  -2.134  -0.257  1.00  0.00     0.000 A 
HETATM    6  C   LIG     1      -4.610  -0.884  -0.140  1.00  0.00     0.000 A 
HETATM    7  C   LIG     1      -3.862   0.300  -0.014  1.00  0.00     0.000 A 
HETATM    8  C   LIG     1      -2.472   0.197  -0.008  1.00  0.00     0.000 A 
HETATM    9  C   LIG     1      -1.434   1.221   0.105  1.00  0.00     0.000 A 
HETATM   10  C   LIG     1      -1.481   2.606   0.243  1.00  0.00     0.000 A 
HETATM   11  C   LIG     1      -0.256   3.300   0.326  1.00  0.00     0.000 A 
HETATM   12  C   LIG     1       0.980   2.608   0.271  1.00  0.00     0.000 A 
HETATM   13  C   LIG     1       1.005   1.196   0.130  1.00  0.00     0.000 A 
HETATM   14  C   LIG     1       2.163   0.367   0.061  1.00  0.00     0.000 A 
HETATM   15  C   LIG     1       3.472   0.889   0.128  1.00  0.00     0.000 A 
HETATM   16  C   LIG     1       4.580   0.041   0.056  1.00  0.00     0.000 A 
HETATM   17  C   LIG     1       4.410  -1.336  -0.083  1.00  0.00     0.000 A 
HETATM   18  C   LIG     1       3.129  -1.884  -0.152  1.00  0.00     0.000 A 
HETATM   19  C   LIG     1       1.999  -1.057  -0.083  1.00  0.00     0.000 A 
HETATM   20  C   LIG     1       0.707  -1.634  -0.155  1.00  0.00     0.000 A 
ENDROOT
TORSDOF 0
