REMARK  1 active torsions:
REMARK  status: ('A' for Active; 'I' for Inactive)
REMARK    1  A    between atoms: C_5  and  C_6 
ROOT
HETATM    1 CL   LIG     1       5.284  -0.322   0.420  1.00  0.00    -0.082 Cl
HETATM    2  C   LIG     1       3.539  -0.216   0.281  1.00  0.00     0.058 A 
HETATM    3  C   LIG     1       2.918  -0.464  -0.946  1.00  0.00     0.011 A 
HETATM    4  C   LIG     1       1.527  -0.379  -1.059  1.00  0.00     0.001 A 
HETATM    5  C   LIG     1       0.739  -0.045   0.059  1.00  0.00     0.000 A 
HETATM    6  C   LIG     1       1.376   0.202   1.290  1.00  0.00     0.001 A 
HETATM    7  C   LIG     1       2.767   0.117   1.398  1.00  0.00     0.011 A 
ENDROOT
BRANCH   5   8
HETATM    8  C   LIG     1      -0.739   0.045  -0.059  1.00  0.00     0.000 A 
HETATM    9  C   LIG     1      -1.333   0.628  -1.194  1.00  0.00     0.001 A 
HETATM   10  C   LIG     1      -2.724   0.713  -1.302  1.00  0.00     0.011 A 
HETATM   11  C   LIG     1      -3.539   0.216  -0.281  1.00  0.00     0.058 A 
HETATM   12  C   LIG     1      -2.961  -0.366   0.850  1.00  0.00     0.011 A 
HETATM   13 CL   LIG     1      -5.284   0.322  -0.420  1.00  0.00    -0.082 Cl
HETATM   14  C   LIG     1      -1.570  -0.452   0.963  1.00  0.00     0.001 A 
ENDBRANCH   5   8
TORSDOF 1
