REMARK  1 active torsions:
REMARK  status: ('A' for Active; 'I' for Inactive)
REMARK    1  A    between atoms: C_6  and  C_7 
ROOT
HETATM    1 CL   LIG     1      -4.122   2.093   0.041  1.00  0.00    -0.082 Cl
HETATM    2  C   LIG     1      -3.011   0.739  -0.050  1.00  0.00     0.058 A 
HETATM    3  C   LIG     1      -3.504  -0.558  -0.221  1.00  0.00     0.011 A 
HETATM    4  C   LIG     1      -2.621  -1.637  -0.298  1.00  0.00     0.001 A 
HETATM    5  C   LIG     1      -1.242  -1.423  -0.206  1.00  0.00     0.000 A 
HETATM    6  C   LIG     1      -0.732  -0.123  -0.034  1.00  0.00     0.001 A 
HETATM    7  C   LIG     1      -1.632   0.957   0.043  1.00  0.00     0.011 A 
ENDROOT
BRANCH   6   8
HETATM    8  C   LIG     1       0.732   0.107   0.066  1.00  0.00     0.001 A 
HETATM    9  C   LIG     1       1.250   1.032   0.991  1.00  0.00     0.000 A 
HETATM   10  C   LIG     1       2.629   1.246   1.083  1.00  0.00     0.001 A 
HETATM   11  C   LIG     1       3.505   0.541   0.255  1.00  0.00     0.011 A 
HETATM   12  C   LIG     1       3.004  -0.380  -0.669  1.00  0.00     0.058 A 
HETATM   13  C   LIG     1       1.625  -0.598  -0.764  1.00  0.00     0.011 A 
HETATM   14 CL   LIG     1       4.105  -1.260  -1.713  1.00  0.00    -0.082 Cl
ENDBRANCH   6   8
TORSDOF 1
