REMARK  1 active torsions:
REMARK  status: ('A' for Active; 'I' for Inactive)
REMARK    1  A    between atoms: C_6  and  C_7 
ROOT
HETATM    1 CL   LIG     1       5.311  -0.023  -0.299  1.00  0.00    -0.081 Cl
HETATM    2  C   LIG     1       3.548  -0.015  -0.200  1.00  0.00     0.081 A 
HETATM    3  C   LIG     1       2.903  -0.640   0.882  1.00  0.00     0.080 A 
HETATM    4  C   LIG     1       1.500  -0.634   0.962  1.00  0.00     0.070 A 
HETATM    5 CL   LIG     1       0.691  -1.420   2.323  1.00  0.00    -0.081 Cl
HETATM    6  C   LIG     1       0.740  -0.003  -0.042  1.00  0.00     0.025 A 
HETATM    7  C   LIG     1       1.388   0.622  -1.125  1.00  0.00     0.070 A 
HETATM    8 CL   LIG     1       0.438   1.415  -2.387  1.00  0.00    -0.081 Cl
HETATM    9  C   LIG     1       2.791   0.615  -1.202  1.00  0.00     0.080 A 
HETATM   10 CL   LIG     1       3.603   1.399  -2.560  1.00  0.00    -0.081 Cl
HETATM   11 CL   LIG     1       3.856  -1.431   2.140  1.00  0.00    -0.081 Cl
ENDROOT
BRANCH   6  12
HETATM   12  C   LIG     1      -0.740   0.003   0.042  1.00  0.00     0.025 A 
HETATM   13  C   LIG     1      -1.404   1.051   0.708  1.00  0.00     0.070 A 
HETATM   14  C   LIG     1      -2.807   1.056   0.787  1.00  0.00     0.080 A 
HETATM   15 CL   LIG     1      -0.475   2.361   1.447  1.00  0.00    -0.081 Cl
HETATM   16  C   LIG     1      -3.548   0.015   0.200  1.00  0.00     0.081 A 
HETATM   17 CL   LIG     1      -3.639   2.369   1.622  1.00  0.00    -0.081 Cl
HETATM   18  C   LIG     1      -2.887  -1.032  -0.466  1.00  0.00     0.080 A 
HETATM   19 CL   LIG     1      -5.311   0.023   0.299  1.00  0.00    -0.081 Cl
HETATM   20  C   LIG     1      -1.484  -1.039  -0.546  1.00  0.00     0.070 A 
HETATM   21 CL   LIG     1      -3.819  -2.337  -1.202  1.00  0.00    -0.081 Cl
HETATM   22 CL   LIG     1      -0.654  -2.356  -1.383  1.00  0.00    -0.081 Cl
ENDBRANCH   6  12
TORSDOF 1
