REMARK  1 active torsions:
REMARK  status: ('A' for Active; 'I' for Inactive)
REMARK    1  A    between atoms: C_6  and  C_7 
ROOT
HETATM    1 CL   LIG     1      -3.535   1.833  -2.303  1.00  0.00    -0.082 Cl
HETATM    2  C   LIG     1      -2.757   0.890  -1.044  1.00  0.00     0.058 A 
HETATM    3  C   LIG     1      -3.531   0.244  -0.076  1.00  0.00     0.011 A 
HETATM    4  C   LIG     1      -2.913  -0.502   0.928  1.00  0.00     0.001 A 
HETATM    5  C   LIG     1      -1.519  -0.606   0.970  1.00  0.00     0.000 A 
HETATM    6  C   LIG     1      -0.727   0.039   0.001  1.00  0.00     0.001 A 
HETATM    7  C   LIG     1      -1.362   0.789  -1.008  1.00  0.00     0.011 A 
ENDROOT
BRANCH   6   8
HETATM    8  C   LIG     1       0.754  -0.071   0.042  1.00  0.00     0.000 A 
HETATM    9  C   LIG     1       1.493  -0.234  -1.145  1.00  0.00     0.000 A 
HETATM   10  C   LIG     1       2.887  -0.337  -1.103  1.00  0.00     0.000 A 
HETATM   11  C   LIG     1       3.558  -0.277   0.120  1.00  0.00     0.000 A 
HETATM   12  C   LIG     1       2.836  -0.115   1.305  1.00  0.00     0.000 A 
HETATM   13  C   LIG     1       1.442  -0.013   1.269  1.00  0.00     0.000 A 
ENDBRANCH   6   8
TORSDOF 1
