REMARK  1 active torsions:
REMARK  status: ('A' for Active; 'I' for Inactive)
REMARK    1  A    between atoms: C_5  and  C_6 
ROOT
HETATM    1 CL   LIG     1       5.272  -0.096   0.294  1.00  0.00    -0.082 Cl
HETATM    2  C   LIG     1       3.521  -0.064   0.196  1.00  0.00     0.058 A 
HETATM    3  C   LIG     1       2.877   0.951  -0.519  1.00  0.00     0.011 A 
HETATM    4  C   LIG     1       1.482   0.978  -0.597  1.00  0.00     0.001 A 
HETATM    5  C   LIG     1       0.711  -0.013   0.040  1.00  0.00     0.000 A 
HETATM    6  C   LIG     1       1.370  -1.030   0.756  1.00  0.00     0.001 A 
HETATM    7  C   LIG     1       2.766  -1.053   0.833  1.00  0.00     0.011 A 
ENDROOT
BRANCH   5   8
HETATM    8  C   LIG     1      -0.771   0.014  -0.043  1.00  0.00     0.000 A 
HETATM    9  C   LIG     1      -1.501  -1.178  -0.217  1.00  0.00     0.000 A 
HETATM   10  C   LIG     1      -2.896  -1.149  -0.295  1.00  0.00     0.000 A 
HETATM   11  C   LIG     1      -3.579   0.065  -0.199  1.00  0.00     0.000 A 
HETATM   12  C   LIG     1      -2.868   1.254  -0.026  1.00  0.00     0.000 A 
HETATM   13  C   LIG     1      -1.472   1.232   0.051  1.00  0.00     0.000 A 
ENDBRANCH   5   8
TORSDOF 1
