REMARK  1 active torsions:
REMARK  status: ('A' for Active; 'I' for Inactive)
REMARK    1  A    between atoms: C_7  and  C_8 
ROOT
HETATM    1 CL   LIG     1       0.597  -1.821  -2.148  1.00  0.00    -0.082 Cl
HETATM    2  C   LIG     1       1.442  -0.819  -0.972  1.00  0.00     0.058 A 
HETATM    3  C   LIG     1       2.842  -0.804  -1.001  1.00  0.00     0.011 A 
HETATM    4  C   LIG     1       3.558   0.017  -0.127  1.00  0.00     0.001 A 
HETATM    5  C   LIG     1       2.879   0.834   0.778  1.00  0.00     0.000 A 
HETATM    6  C   LIG     1       1.483   0.827   0.816  1.00  0.00     0.001 A 
HETATM    7  C   LIG     1       0.749  -0.003  -0.049  1.00  0.00     0.011 A 
ENDROOT
BRANCH   7   8
HETATM    8  C   LIG     1      -0.729   0.004   0.028  1.00  0.00     0.001 A 
HETATM    9  C   LIG     1      -1.437  -1.185   0.275  1.00  0.00     0.000 A 
HETATM   10  C   LIG     1      -2.833  -1.169   0.364  1.00  0.00     0.000 A 
HETATM   11  C   LIG     1      -3.530   0.033   0.216  1.00  0.00     0.000 A 
HETATM   12  C   LIG     1      -2.833   1.221  -0.018  1.00  0.00     0.000 A 
HETATM   13  C   LIG     1      -1.438   1.210  -0.107  1.00  0.00     0.000 A 
ENDBRANCH   7   8
TORSDOF 1
