REMARK  0 active torsions:
REMARK  status: ('A' for Active; 'I' for Inactive)
ROOT
HETATM    1  C   LIG     1       1.305   0.584   0.150  1.00  0.00     0.000 A 
HETATM    2  C   LIG     1       1.193  -0.800   0.052  1.00  0.00     0.000 A 
HETATM    3  C   LIG     1       2.315  -1.624   0.097  1.00  0.00     0.000 A 
HETATM    4  C   LIG     1       3.575  -1.016   0.245  1.00  0.00     0.000 A 
HETATM    5  C   LIG     1       3.688   0.388   0.344  1.00  0.00     0.000 A 
HETATM    6  C   LIG     1       2.543   1.204   0.297  1.00  0.00     0.000 A 
HETATM    7  C   LIG     1      -0.228  -1.120  -0.091  1.00  0.00     0.000 A 
HETATM    8  C   LIG     1      -0.933  -2.317  -0.229  1.00  0.00     0.000 A 
HETATM    9  C   LIG     1      -2.342  -2.244  -0.346  1.00  0.00     0.000 A 
HETATM   10  C   LIG     1      -3.011  -0.992  -0.324  1.00  0.00     0.000 A 
HETATM   11  C   LIG     1      -2.267   0.196  -0.184  1.00  0.00     0.000 A 
HETATM   12  C   LIG     1      -0.892   0.077  -0.072  1.00  0.00     0.000 A 
HETATM   13  C   LIG     1      -0.045   1.144   0.069  1.00  0.00     0.000 A 
HETATM   14  C   LIG     1      -0.549   2.445   0.108  1.00  0.00     0.000 A 
HETATM   15  C   LIG     1      -1.950   2.615  -0.002  1.00  0.00     0.000 A 
HETATM   16  C   LIG     1      -2.810   1.495  -0.148  1.00  0.00     0.000 A 
ENDROOT
TORSDOF 0
