REMARK  0 active torsions:
REMARK  status: ('A' for Active; 'I' for Inactive)
ROOT
HETATM    1  C   LIG     1      -2.039  -0.069   0.058  1.00  0.00     0.000 A 
HETATM    2  C   LIG     1      -1.258   0.255   1.135  1.00  0.00     0.000 A 
HETATM    3  C   LIG     1       0.128   0.186   0.668  1.00  0.00     0.000 A 
HETATM    4  C   LIG     1       0.102  -0.178  -0.674  1.00  0.00     0.000 A 
HETATM    5  C   LIG     1       1.272  -0.329  -1.413  1.00  0.00     0.000 A 
HETATM    6  C   LIG     1       2.502  -0.102  -0.762  1.00  0.00     0.000 A 
HETATM    7  C   LIG     1       3.710  -0.241  -1.462  1.00  0.00     0.000 A 
HETATM    8  C   LIG     1       4.928  -0.016  -0.815  1.00  0.00     0.000 A 
HETATM    9  C   LIG     1       4.954   0.350   0.533  1.00  0.00     0.000 A 
HETATM   10  C   LIG     1       3.763   0.494   1.249  1.00  0.00     0.000 A 
HETATM   11  C   LIG     1       2.529   0.272   0.618  1.00  0.00     0.000 A 
HETATM   12  C   LIG     1       1.325   0.417   1.339  1.00  0.00     0.000 A 
HETATM   13  C   LIG     1      -1.301  -0.341  -1.062  1.00  0.00     0.000 A 
HETATM   14  C   LIG     1      -1.932  -0.691  -2.256  1.00  0.00     0.000 A 
HETATM   15  C   LIG     1      -3.346  -0.751  -2.263  1.00  0.00     0.000 A 
HETATM   16  C   LIG     1      -4.094  -0.465  -1.090  1.00  0.00     0.000 A 
HETATM   17  C   LIG     1      -3.423  -0.116   0.098  1.00  0.00     0.000 A 
HETATM   18  C   LIG     1      -4.047   0.190   1.323  1.00  0.00     0.000 A 
HETATM   19  C   LIG     1      -3.255   0.528   2.452  1.00  0.00     0.000 A 
HETATM   20  C   LIG     1      -1.843   0.563   2.364  1.00  0.00     0.000 A 
ENDROOT
TORSDOF 0
