REMARK  0 active torsions:
REMARK  status: ('A' for Active; 'I' for Inactive)
ROOT
HETATM    1  C   LIG     1      -1.173  -0.213  -0.011  1.00  0.00     0.000 A 
HETATM    2  C   LIG     1      -2.030   0.904   0.016  1.00  0.00     0.000 A 
HETATM    3  C   LIG     1      -1.476   2.212   0.055  1.00  0.00     0.000 A 
HETATM    4  C   LIG     1      -0.073   2.405   0.067  1.00  0.00     0.000 A 
HETATM    5  C   LIG     1       0.742   1.272   0.039  1.00  0.00     0.000 A 
HETATM    6  C   LIG     1       2.197   1.082   0.041  1.00  0.00     0.000 A 
HETATM    7  C   LIG     1       2.437  -0.241   0.005  1.00  0.00     0.000 A 
HETATM    8  C   LIG     1       0.188   0.034   0.002  1.00  0.00     0.000 A 
HETATM    9  C   LIG     1       1.142  -0.930  -0.021  1.00  0.00     0.000 A 
HETATM   10  C   LIG     1       0.777  -2.277  -0.060  1.00  0.00     0.000 A 
HETATM   11  C   LIG     1      -0.604  -2.589  -0.076  1.00  0.00     0.000 A 
HETATM   12  C   LIG     1      -1.583  -1.559  -0.051  1.00  0.00     0.000 A 
ENDROOT
TORSDOF 0
