REMARK  6 active torsions:
REMARK  status: ('A' for Active; 'I' for Inactive)
REMARK    1  A    between atoms: C_2  and  O_3 
REMARK    2  A    between atoms: O_3  and  C_4 
REMARK    3  A    between atoms: C_4  and  C_5 
REMARK    4  A    between atoms: C_5  and  C_6 
REMARK    5  A    between atoms: C_6  and  C_7 
REMARK    6  A    between atoms: C_7  and  C_8 
ROOT
HETATM    1  C   LIG     1       1.120   0.275   1.158  1.00  0.00     0.153 C 
ENDROOT
BRANCH   1   2
HETATM    2  O   LIG     1       2.192  -0.096   0.296  1.00  0.00    -0.287 OA
BRANCH   2   3
HETATM    3  C   LIG     1       3.218   0.786  -0.053  1.00  0.00     0.373 C 
HETATM    4  N   LIG     1       4.255   0.347  -0.926  1.00  0.00    -0.032 NA
HETATM    5  O   LIG     1       3.234   1.965   0.394  1.00  0.00    -0.242 OA
ENDBRANCH   2   3
ENDBRANCH   1   2
BRANCH   1   6
HETATM    6  C   LIG     1       0.154  -0.899   1.340  1.00  0.00     0.033 C 
BRANCH   6   7
HETATM    7  C   LIG     1      -0.401  -1.460   0.017  1.00  0.00     0.003 C 
BRANCH   7   8
HETATM    8  C   LIG     1      -1.184  -0.449  -0.840  1.00  0.00     0.000 C 
BRANCH   8   9
HETATM    9  C   LIG     1      -2.434   0.093  -0.132  1.00  0.00     0.000 C 
HETATM   10  C   LIG     1      -3.270   0.953  -1.075  1.00  0.00     0.000 C 
ENDBRANCH   8   9
ENDBRANCH   7   8
ENDBRANCH   6   7
ENDBRANCH   1   6
TORSDOF 6
