REMARK  3 active torsions:
REMARK  status: ('A' for Active; 'I' for Inactive)
REMARK    1  A    between atoms: C_2  and  O_3 
REMARK    2  A    between atoms: O_3  and  C_4 
REMARK    3  A    between atoms: C_4  and  C_5 
ROOT
HETATM    1  O   LIG     1       1.232   0.226  -0.082  1.00  0.00    -0.287 OA
ENDROOT
BRANCH   1   2
HETATM    2  C   LIG     1       2.379   0.202  -0.879  1.00  0.00     0.373 C 
HETATM    3  N   LIG     1       3.485   1.034  -0.543  1.00  0.00    -0.032 NA
HETATM    4  O   LIG     1       2.445  -0.548  -1.891  1.00  0.00    -0.242 OA
ENDBRANCH   1   2
BRANCH   1   5
HETATM    5  C   LIG     1       0.087  -0.577  -0.358  1.00  0.00     0.153 C 
BRANCH   5   6
HETATM    6  C   LIG     1      -1.003  -0.320   0.694  1.00  0.00     0.030 C 
HETATM    7  C   LIG     1      -1.487   1.136   0.641  1.00  0.00     0.003 C 
HETATM    8  C   LIG     1      -2.181  -1.279   0.490  1.00  0.00     0.003 C 
ENDBRANCH   5   6
ENDBRANCH   1   5
TORSDOF 3
