REMARK  0 active torsions:
REMARK  status: ('A' for Active; 'I' for Inactive)
ROOT
HETATM    1  C   LIG     1       3.457  -0.229   0.258  1.00  0.00     0.031 C 
HETATM    2  C   LIG     1       2.061   0.268  -0.034  1.00  0.00    -0.022 C 
HETATM    3  C   LIG     1       1.920   1.499  -0.676  1.00  0.00    -0.004 C 
HETATM    4  C   LIG     1       0.665   2.033  -0.917  1.00  0.00    -0.004 C 
HETATM    5  C   LIG     1      -0.503   1.345  -0.555  1.00  0.00    -0.022 C 
HETATM    6  C   LIG     1      -0.404   0.017  -0.023  1.00  0.00    -0.008 C 
HETATM    7  C   LIG     1       0.903  -0.477   0.311  1.00  0.00    -0.004 C 
HETATM    8  C   LIG     1       1.029  -1.710   0.985  1.00  0.00    -0.000 C 
HETATM    9  C   LIG     1      -0.088  -2.465   1.305  1.00  0.00    -0.000 C 
HETATM   10  C   LIG     1      -1.348  -2.051   0.905  1.00  0.00    -0.004 C 
HETATM   11  C   LIG     1      -1.528  -0.850   0.199  1.00  0.00    -0.022 C 
HETATM   12  C   LIG     1      -2.905  -0.624  -0.379  1.00  0.00     0.031 C 
HETATM   13  C   LIG     1      -1.790   2.128  -0.657  1.00  0.00     0.031 C 
ENDROOT
TORSDOF 0
