REMARK  1 active torsions:
REMARK  status: ('A' for Active; 'I' for Inactive)
REMARK    1  A    between atoms: C_10  and  C_11 
ROOT
HETATM    1 CL   LIG     1       0.457   2.904   0.276  1.00  0.00    -0.082 Cl
HETATM    2  C   LIG     1       1.308   1.428  -0.206  1.00  0.00     0.069 C 
HETATM    3  C   LIG     1       2.683   1.541  -0.477  1.00  0.00     0.069 C 
HETATM    4 CL   LIG     1       3.402   3.076  -0.948  1.00  0.00    -0.082 Cl
HETATM    5  C   LIG     1       3.517   0.439  -0.295  1.00  0.00     0.025 C 
HETATM    6  C   LIG     1       3.017  -0.707   0.321  1.00  0.00     0.069 C 
HETATM    7 CL   LIG     1       4.147  -1.952   0.837  1.00  0.00    -0.082 Cl
HETATM    8  C   LIG     1       1.640  -0.811   0.589  1.00  0.00     0.069 C 
HETATM    9 CL   LIG     1       1.158  -1.828   1.955  1.00  0.00    -0.082 Cl
HETATM   10  C   LIG     1       0.743   0.146   0.039  1.00  0.00     0.025 C 
ENDROOT
BRANCH  10  11
HETATM   11  C   LIG     1      -0.743  -0.146  -0.164  1.00  0.00     0.025 C 
HETATM   12  C   LIG     1      -1.308  -1.428   0.080  1.00  0.00     0.069 C 
HETATM   13  C   LIG     1      -2.683  -1.541   0.351  1.00  0.00     0.069 C 
HETATM   14 CL   LIG     1      -0.457  -2.904  -0.401  1.00  0.00    -0.082 Cl
HETATM   15  C   LIG     1      -3.517  -0.439   0.170  1.00  0.00     0.025 C 
HETATM   16 CL   LIG     1      -3.402  -3.076   0.822  1.00  0.00    -0.082 Cl
HETATM   17  C   LIG     1      -3.017   0.707  -0.447  1.00  0.00     0.069 C 
HETATM   18  C   LIG     1      -1.640   0.811  -0.715  1.00  0.00     0.069 C 
HETATM   19 CL   LIG     1      -4.147   1.952  -0.963  1.00  0.00    -0.082 Cl
HETATM   20 CL   LIG     1      -1.158   1.828  -2.081  1.00  0.00    -0.082 Cl
ENDBRANCH  10  11
TORSDOF 1
