REMARK  7 active torsions:
REMARK  status: ('A' for Active; 'I' for Inactive)
REMARK    1  A    between atoms: C_22  and  C_30 
REMARK    2  A    between atoms: C_22  and  O_23 
REMARK    3  A    between atoms: O_23  and  C_24 
REMARK    4  A    between atoms: C_24  and  C_25 
REMARK    5  A    between atoms: C_25  and  C_26 
REMARK    6  A    between atoms: C_26  and  C_27 
REMARK    7  A    between atoms: C_30  and  C_31 
ROOT
HETATM    1  O   LIG     1       7.750  -1.964   0.664  1.00  0.00    -0.287 OA
HETATM    2  C   LIG     1       6.680  -1.358   0.392  1.00  0.00     0.195 C 
HETATM    3  C   LIG     1       5.988  -1.612  -0.872  1.00  0.00     0.038 C 
HETATM    4  C   LIG     1       4.905  -0.903  -1.205  1.00  0.00    -0.017 C 
HETATM    5  C   LIG     1       4.453   0.320  -0.406  1.00  0.00     0.064 C 
HETATM    6  C   LIG     1       5.074   1.546  -1.115  1.00  0.00     0.011 C 
HETATM    7  C   LIG     1       5.009   0.292   1.038  1.00  0.00    -0.035 C 
HETATM    8  C   LIG     1       4.203   0.964   2.134  1.00  0.00     0.023 C 
HETATM    9  C   LIG     1       2.789   0.338   2.245  1.00  0.00     0.007 C 
HETATM   10  C   LIG     1       2.345  -0.337   0.922  1.00  0.00     0.034 C 
HETATM   11  C   LIG     1       2.869   0.455  -0.326  1.00  0.00     0.168 C 
HETATM   12  F   LIG     1       2.605   1.804  -0.137  1.00  0.00    -0.237 F 
HETATM   13  C   LIG     1       2.058   0.050  -1.598  1.00  0.00     0.182 C 
HETATM   14  O   LIG     1       2.143  -1.334  -1.827  1.00  0.00    -0.221 OA
HETATM   15  C   LIG     1       0.557   0.458  -1.453  1.00  0.00     0.038 C 
HETATM   16  C   LIG     1      -0.061   0.227  -0.015  1.00  0.00     0.033 C 
HETATM   17  C   LIG     1      -0.220   1.616   0.697  1.00  0.00     0.003 C 
HETATM   18  C   LIG     1       0.839  -0.721   0.802  1.00  0.00     0.005 C 
HETATM   19  C   LIG     1       0.036  -1.074   2.037  1.00  0.00     0.003 C 
HETATM   20  C   LIG     1      -1.395  -1.252   1.484  1.00  0.00     0.032 C 
HETATM   21  C   LIG     1      -2.459  -0.792   2.493  1.00  0.00     0.003 C 
HETATM   22  C   LIG     1      -1.453  -0.533   0.075  1.00  0.00     0.154 C 
HETATM   23  C   LIG     1       6.079  -0.447   1.368  1.00  0.00     0.034 C 
ENDROOT
BRANCH  22  24
HETATM   24  C   LIG     1      -1.687  -1.631  -0.978  1.00  0.00     0.208 C 
HETATM   25  O   LIG     1      -0.747  -2.213  -1.499  1.00  0.00    -0.291 OA
BRANCH  24  26
HETATM   26  C   LIG     1      -3.078  -2.126  -1.292  1.00  0.00     0.249 C 
HETATM   27  O   LIG     1      -3.176  -3.498  -1.016  1.00  0.00    -0.212 OA
ENDBRANCH  24  26
ENDBRANCH  22  24
BRANCH  22  28
HETATM   28  O   LIG     1      -2.556   0.392   0.042  1.00  0.00    -0.299 OA
BRANCH  28  29
HETATM   29  C   LIG     1      -2.964   1.141  -1.073  1.00  0.00     0.272 C 
HETATM   30  O   LIG     1      -2.318   1.106  -2.153  1.00  0.00    -0.264 OA
BRANCH  29  31
HETATM   31  C   LIG     1      -4.208   1.965  -0.986  1.00  0.00     0.096 C 
BRANCH  31  32
HETATM   32  C   LIG     1      -5.445   1.086  -1.221  1.00  0.00     0.010 C 
BRANCH  32  33
HETATM   33  C   LIG     1      -6.728   1.911  -1.400  1.00  0.00     0.001 C 
HETATM   34  C   LIG     1      -7.226   2.515  -0.089  1.00  0.00     0.000 C 
ENDBRANCH  32  33
ENDBRANCH  31  32
ENDBRANCH  29  31
ENDBRANCH  28  29
ENDBRANCH  22  28
TORSDOF 7
