REMARK  1 active torsions:
REMARK  status: ('A' for Active; 'I' for Inactive)
REMARK       I    between atoms: C_2  and  N_3 
REMARK       I    between atoms: C_2  and  N_12 
REMARK    1  A    between atoms: N_3  and  C_4 
ROOT
HETATM    1  C   LIG     1      -0.225  -0.045  -0.382  1.00  0.00     0.108 C 
HETATM    2  C   LIG     1      -0.826   1.101  -1.224  1.00  0.00     0.025 C 
HETATM    3  C   LIG     1      -2.364   1.224  -1.227  1.00  0.00     0.002 C 
HETATM    4  C   LIG     1      -3.027   1.160   0.161  1.00  0.00     0.000 C 
HETATM    5  C   LIG     1      -3.531  -0.250   0.549  1.00  0.00     0.000 C 
HETATM    6  C   LIG     1      -2.537  -1.054   1.406  1.00  0.00     0.000 C 
HETATM    7  C   LIG     1      -1.610  -2.000   0.616  1.00  0.00     0.002 C 
HETATM    8  C   LIG     1      -0.924  -1.410  -0.630  1.00  0.00     0.025 C 
ENDROOT
BRANCH   1   9
HETATM    9  N   LIG     1       1.206  -0.154  -0.693  1.00  0.00    -0.221 NA
HETATM   10  C   LIG     1       2.221   0.527   0.068  1.00  0.00     0.342 C 
HETATM   11  O   LIG     1       1.881   1.271   1.030  1.00  0.00    -0.245 OA
HETATM   12  N   LIG     1       3.621   0.376  -0.251  1.00  0.00    -0.297 N 
HETATM   13  C   LIG     1       4.058  -0.543  -1.307  1.00  0.00     0.130 C 
HETATM   14  C   LIG     1       4.613   1.138   0.516  1.00  0.00     0.130 C 
ENDBRANCH   1   9
TORSDOF 1
