REMARK  2 active torsions:
REMARK  status: ('A' for Active; 'I' for Inactive)
REMARK       I    between atoms: C_2  and  N_3 
REMARK       I    between atoms: C_2  and  N_14 
REMARK    1  A    between atoms: N_3  and  C_4 
REMARK    2  A    between atoms: C_6  and  C_7 
ROOT
HETATM    1  C   LIG     1      -0.667  -0.051  -0.307  1.00  0.00     0.086 A 
HETATM    2  C   LIG     1      -1.777   0.804  -0.230  1.00  0.00     0.023 A 
HETATM    3  C   LIG     1      -3.015   0.429  -0.782  1.00  0.00     0.073 A 
HETATM    4  C   LIG     1      -3.138  -0.832  -1.389  1.00  0.00     0.004 A 
HETATM    5  C   LIG     1      -2.031  -1.678  -1.489  1.00  0.00     0.002 A 
HETATM    6  C   LIG     1      -0.798  -1.288  -0.962  1.00  0.00     0.019 A 
ENDROOT
BRANCH   1   7
HETATM    7  N   LIG     1       0.594   0.378   0.237  1.00  0.00    -0.193 NA
HETATM    8  C   LIG     1       1.566  -0.520   0.802  1.00  0.00     0.346 C 
HETATM    9  O   LIG     1       1.209  -1.673   1.171  1.00  0.00    -0.245 OA
HETATM   10  N   LIG     1       2.938  -0.109   0.986  1.00  0.00    -0.297 N 
HETATM   11  C   LIG     1       3.403   1.186   0.480  1.00  0.00     0.130 C 
HETATM   12  C   LIG     1       3.876  -1.021   1.648  1.00  0.00     0.130 C 
ENDBRANCH   1   7
BRANCH   3  13
HETATM   13  C   LIG     1      -4.218   1.329  -0.639  1.00  0.00     0.419 C 
HETATM   14  F   LIG     1      -4.854   1.050   0.557  1.00  0.00    -0.166 F 
HETATM   15  F   LIG     1      -5.107   1.129  -1.680  1.00  0.00    -0.166 F 
HETATM   16  F   LIG     1      -3.835   2.659  -0.647  1.00  0.00    -0.166 F 
ENDBRANCH   3  13
TORSDOF 2
