REMARK  0 active torsions:
REMARK  status: ('A' for Active; 'I' for Inactive)
ROOT
HETATM    1  C   LIG     1      -0.335  -1.387  -0.032  1.00  0.00     0.000 A 
HETATM    2  C   LIG     1      -0.711  -2.757  -0.111  1.00  0.00     0.000 A 
HETATM    3  C   LIG     1      -2.045  -3.146  -0.110  1.00  0.00     0.000 A 
HETATM    4  C   LIG     1      -3.045  -2.196  -0.032  1.00  0.00     0.000 A 
HETATM    5  C   LIG     1      -2.721  -0.845   0.016  1.00  0.00     0.000 A 
HETATM    6  C   LIG     1      -1.370  -0.402  -0.015  1.00  0.00     0.000 A 
HETATM    7  C   LIG     1      -1.034   0.985  -0.013  1.00  0.00     0.000 A 
HETATM    8  C   LIG     1      -2.031   1.997  -0.071  1.00  0.00     0.000 A 
HETATM    9  C   LIG     1      -1.702   3.346  -0.024  1.00  0.00     0.000 A 
HETATM   10  C   LIG     1      -0.380   3.734   0.081  1.00  0.00     0.000 A 
HETATM   11  C   LIG     1       0.628   2.777   0.110  1.00  0.00     0.000 A 
HETATM   12  C   LIG     1       0.336   1.387   0.032  1.00  0.00     0.000 A 
HETATM   13  C   LIG     1       1.369   0.403   0.015  1.00  0.00     0.000 A 
HETATM   14  C   LIG     1       1.033  -0.985   0.013  1.00  0.00     0.000 A 
HETATM   15  C   LIG     1       2.091  -1.935   0.073  1.00  0.00     0.000 A 
HETATM   16  C   LIG     1       3.423  -1.540   0.072  1.00  0.00     0.000 A 
HETATM   17  C   LIG     1       3.749  -0.198   0.012  1.00  0.00     0.000 A 
HETATM   18  C   LIG     1       2.745   0.762  -0.016  1.00  0.00     0.000 A 
ENDROOT
TORSDOF 0
