REMARK  4 active torsions:
REMARK  status: ('A' for Active; 'I' for Inactive)
REMARK    1  A    between atoms: C_4  and  N_5 
REMARK    2  A    between atoms: N_5  and  C_6 
REMARK    3  A    between atoms: C_12  and  N_13 
REMARK    4  A    between atoms: N_13  and  C_14 
ROOT
HETATM    1  C   LIG     1      -2.628   0.510  -0.604  1.00  0.00     0.181 C 
HETATM    2  C   LIG     1      -3.188   1.760  -1.306  1.00  0.00     0.041 C 
HETATM    3  C   LIG     1      -3.138   0.477   0.847  1.00  0.00     0.041 C 
HETATM    4  C   LIG     1      -3.109  -0.681  -1.331  1.00  0.00     0.095 C 
HETATM    5  N   LIG     1      -3.486  -1.615  -1.900  1.00  0.00    -0.194 NA
ENDROOT
BRANCH   1   6
HETATM    6  N   LIG     1      -1.155   0.551  -0.624  1.00  0.00    -0.075 NA
BRANCH   6   7
HETATM    7  C   LIG     1      -0.300  -0.502  -0.149  1.00  0.00     0.764 A 
HETATM    8  N   LIG     1      -0.817  -1.679   0.293  1.00  0.00    -0.028 NA
HETATM    9  C   LIG     1       0.004  -2.664   0.732  1.00  0.00     0.259 A 
HETATM   10 CL   LIG     1      -0.670  -4.176   1.299  1.00  0.00    -0.040 Cl
HETATM   11  N   LIG     1       1.348  -2.479   0.729  1.00  0.00    -0.028 NA
HETATM   12  C   LIG     1       1.874  -1.308   0.289  1.00  0.00     0.763 A 
HETATM   13  N   LIG     1       1.046  -0.324  -0.152  1.00  0.00     0.134 NA
BRANCH  12  14
HETATM   14  N   LIG     1       3.295  -1.124   0.287  1.00  0.00    -0.085 NA
BRANCH  14  15
HETATM   15  C   LIG     1       3.934   0.115  -0.152  1.00  0.00     0.145 C 
HETATM   16  C   LIG     1       3.787   1.202   0.908  1.00  0.00     0.029 C 
ENDBRANCH  14  15
ENDBRANCH  12  14
ENDBRANCH   6   7
ENDBRANCH   1   6
TORSDOF 4
