REMARK  0 active torsions:
REMARK  status: ('A' for Active; 'I' for Inactive)
ROOT
HETATM    1  C   LIG     1      -1.861  -0.358  -0.102  1.00  0.00     0.000 A 
HETATM    2  C   LIG     1      -2.369   0.961   0.040  1.00  0.00     0.000 A 
HETATM    3  C   LIG     1      -1.497   2.039   0.161  1.00  0.00     0.000 A 
HETATM    4  C   LIG     1      -0.123   1.849   0.146  1.00  0.00     0.000 A 
HETATM    5  C   LIG     1       0.442   0.561   0.008  1.00  0.00     0.000 A 
HETATM    6  C   LIG     1      -0.442  -0.561  -0.118  1.00  0.00     0.000 A 
HETATM    7  C   LIG     1       0.123  -1.849  -0.256  1.00  0.00     0.000 A 
HETATM    8  C   LIG     1       1.497  -2.039  -0.271  1.00  0.00     0.000 A 
HETATM    9  C   LIG     1       2.369  -0.961  -0.149  1.00  0.00     0.000 A 
HETATM   10  C   LIG     1       1.861   0.358  -0.008  1.00  0.00     0.000 A 
HETATM   11  C   LIG     1       2.801   1.415   0.112  1.00  0.00     0.000 A 
HETATM   12  C   LIG     1       4.175   1.162   0.090  1.00  0.00     0.000 A 
HETATM   13  C   LIG     1       4.650  -0.137  -0.050  1.00  0.00     0.000 A 
HETATM   14  C   LIG     1       3.754  -1.196  -0.169  1.00  0.00     0.000 A 
HETATM   15  C   LIG     1      -3.754   1.196   0.060  1.00  0.00     0.000 A 
HETATM   16  C   LIG     1      -4.650   0.137  -0.060  1.00  0.00     0.000 A 
HETATM   17  C   LIG     1      -4.175  -1.162  -0.199  1.00  0.00     0.000 A 
HETATM   18  C   LIG     1      -2.801  -1.415  -0.221  1.00  0.00     0.000 A 
ENDROOT
TORSDOF 0
