REMARK  9 active torsions:
REMARK  status: ('A' for Active; 'I' for Inactive)
REMARK    1  A    between atoms: C_2  and  C_12 
REMARK    2  A    between atoms: C_2  and  O_3 
REMARK    3  A    between atoms: O_3  and  C_4 
REMARK    4  A    between atoms: C_4  and  C_5 
REMARK    5  A    between atoms: C_5  and  N_6 
REMARK    6  A    between atoms: N_6  and  C_7 
REMARK    7  A    between atoms: C_7  and  C_8 
REMARK    8  A    between atoms: C_8  and  C_9 
REMARK    9  A    between atoms: C_9  and  C_10 
ROOT
HETATM    1  O   LIG     1       2.126  -1.683   2.516  1.00  0.00    -0.259 OA
HETATM    2  C   LIG     1       2.365  -0.842   1.606  1.00  0.00     0.296 C 
ENDROOT
BRANCH   2   3
HETATM    3  C   LIG     1       3.718  -0.749   1.016  1.00  0.00     0.063 A 
HETATM    4  C   LIG     1       3.985   0.179  -0.006  1.00  0.00     0.006 A 
HETATM    5  C   LIG     1       5.262   0.269  -0.567  1.00  0.00     0.014 A 
HETATM    6  C   LIG     1       6.292  -0.567  -0.116  1.00  0.00     0.070 A 
HETATM    7  C   LIG     1       6.033  -1.494   0.902  1.00  0.00     0.014 A 
HETATM    8  N   LIG     1       7.598  -0.473  -0.690  1.00  0.00    -0.101 NA
HETATM    9  C   LIG     1       4.757  -1.586   1.464  1.00  0.00     0.006 A 
ENDBRANCH   2   3
BRANCH   2  10
HETATM   10  O   LIG     1       1.349   0.006   1.152  1.00  0.00    -0.296 OA
BRANCH  10  11
HETATM   11  C   LIG     1       0.021  -0.038   1.664  1.00  0.00     0.190 C 
BRANCH  11  12
HETATM   12  C   LIG     1      -0.847   1.017   0.965  1.00  0.00     0.323 C 
BRANCH  12  13
HETATM   13  N   LIG     1      -1.028   0.739  -0.471  1.00  0.00     0.342 N 
BRANCH  13  14
HETATM   14  C   LIG     1      -2.122  -0.208  -0.733  1.00  0.00     0.290 C 
BRANCH  14  15
HETATM   15  C   LIG     1      -3.437   0.550  -0.945  1.00  0.00     0.038 C 
BRANCH  15  16
HETATM   16  C   LIG     1      -4.590  -0.418  -1.250  1.00  0.00     0.002 C 
BRANCH  16  17
HETATM   17  C   LIG     1      -5.899   0.311  -1.586  1.00  0.00     0.000 C 
HETATM   18  C   LIG     1      -6.527   0.991  -0.369  1.00  0.00     0.000 C 
ENDBRANCH  16  17
ENDBRANCH  15  16
ENDBRANCH  14  15
ENDBRANCH  13  14
ENDBRANCH  12  13
ENDBRANCH  11  12
ENDBRANCH  10  11
ENDBRANCH   2  10
TORSDOF 9
