REMARK  0 active torsions:
REMARK  status: ('A' for Active; 'I' for Inactive)
ROOT
HETATM    1  C   LIG     1       1.889   1.160   0.780  1.00  0.00     0.000 C 
HETATM    2  C   LIG     1       0.915   0.266  -0.004  1.00  0.00     0.000 C 
HETATM    3  C   LIG     1      -0.555   0.768   0.099  1.00  0.00     0.000 C 
HETATM    4  C   LIG     1      -0.725   2.185  -0.473  1.00  0.00     0.000 C 
HETATM    5  C   LIG     1      -1.508  -0.197  -0.638  1.00  0.00     0.000 C 
HETATM    6  C   LIG     1      -1.374  -1.629  -0.110  1.00  0.00     0.000 C 
HETATM    7  C   LIG     1       0.070  -2.120  -0.234  1.00  0.00     0.000 C 
HETATM    8  C   LIG     1       1.028  -1.185   0.511  1.00  0.00     0.000 C 
ENDROOT
TORSDOF 0
