REMARK  4 active torsions:
REMARK  status: ('A' for Active; 'I' for Inactive)
REMARK    1  A    between atoms: C_2  and  C_3 
REMARK    2  A    between atoms: C_2  and  C_9 
REMARK    3  A    between atoms: C_13  and  C_14 
REMARK    4  A    between atoms: C_14  and  C_15 
ROOT
HETATM    1  C   LIG     1       0.288  -0.554   0.155  1.00  0.00     0.039 A 
HETATM    2  C   LIG     1       0.370   0.145   1.372  1.00  0.00     0.003 A 
HETATM    3  C   LIG     1      -0.751   0.794   1.891  1.00  0.00    -0.000 A 
HETATM    4  C   LIG     1      -1.970   0.743   1.211  1.00  0.00    -0.004 A 
HETATM    5  C   LIG     1      -2.082   0.029   0.005  1.00  0.00    -0.012 A 
HETATM    6  C   LIG     1      -0.946  -0.617  -0.516  1.00  0.00    -0.001 A 
ENDROOT
BRANCH   1   7
HETATM    7  C   LIG     1       1.469  -1.260  -0.399  1.00  0.00     0.196 C 
HETATM    8  O   LIG     1       1.292  -2.334  -1.037  1.00  0.00    -0.287 OA
BRANCH   7   9
HETATM    9  C   LIG     1       2.851  -0.748  -0.231  1.00  0.00     0.039 A 
HETATM   10  C   LIG     1       3.112   0.635  -0.191  1.00  0.00     0.003 A 
HETATM   11  C   LIG     1       4.422   1.103  -0.050  1.00  0.00     0.000 A 
HETATM   12  C   LIG     1       5.483   0.200   0.042  1.00  0.00     0.000 A 
HETATM   13  C   LIG     1       5.237  -1.174  -0.013  1.00  0.00     0.000 A 
HETATM   14  C   LIG     1       3.929  -1.647  -0.154  1.00  0.00     0.003 A 
ENDBRANCH   7   9
ENDBRANCH   1   7
BRANCH   5  15
HETATM   15  C   LIG     1      -3.398  -0.023  -0.746  1.00  0.00     0.110 C 
HETATM   16  C   LIG     1      -3.734   1.355  -1.331  1.00  0.00     0.016 C 
BRANCH  15  17
HETATM   17  C   LIG     1      -4.496  -0.550   0.143  1.00  0.00     0.189 C 
HETATM   18  O   LIG     1      -5.574   0.255   0.503  1.00  0.00    -0.647 OA
HETATM   19  O   LIG     1      -4.436  -1.735   0.568  1.00  0.00    -0.647 OA
ENDBRANCH  15  17
ENDBRANCH   5  15
TORSDOF 4
