REMARK  3 active torsions:
REMARK  status: ('A' for Active; 'I' for Inactive)
REMARK    1  A    between atoms: O_2  and  C_3 
REMARK    2  A    between atoms: C_10  and  C_11 
REMARK    3  A    between atoms: C_11  and  C_13 
ROOT
HETATM    1  C   LIG     1       3.092   0.630  -0.349  1.00  0.00     0.094 A 
HETATM    2  C   LIG     1       2.813  -0.126   0.806  1.00  0.00     0.024 A 
HETATM    3  C   LIG     1       1.500  -0.498   1.108  1.00  0.00     0.002 A 
HETATM    4  C   LIG     1       0.446  -0.121   0.264  1.00  0.00    -0.000 A 
HETATM    5  C   LIG     1       0.719   0.638  -0.897  1.00  0.00     0.002 A 
HETATM    6  C   LIG     1      -0.334   1.014  -1.742  1.00  0.00    -0.000 A 
HETATM    7  C   LIG     1      -1.647   0.643  -1.441  1.00  0.00    -0.004 A 
HETATM    8  C   LIG     1      -1.931  -0.107  -0.287  1.00  0.00    -0.012 A 
HETATM    9  C   LIG     1      -0.874  -0.490   0.560  1.00  0.00    -0.004 A 
HETATM   10  C   LIG     1       2.040   1.007  -1.193  1.00  0.00     0.024 A 
ENDROOT
BRANCH   8  11
HETATM   11  C   LIG     1      -3.358  -0.513   0.021  1.00  0.00     0.110 C 
HETATM   12  C   LIG     1      -3.532  -2.029  -0.155  1.00  0.00     0.016 C 
BRANCH  11  13
HETATM   13  C   LIG     1      -3.757  -0.037   1.399  1.00  0.00     0.189 C 
HETATM   14  O   LIG     1      -3.809   1.327   1.675  1.00  0.00    -0.647 OA
HETATM   15  O   LIG     1      -4.046  -0.857   2.311  1.00  0.00    -0.647 OA
ENDBRANCH  11  13
ENDBRANCH   8  11
BRANCH   1  16
HETATM   16  O   LIG     1       4.393   1.026  -0.691  1.00  0.00    -0.328 OA
HETATM   17  C   LIG     1       5.555   0.716   0.071  1.00  0.00     0.181 C 
ENDBRANCH   1  16
TORSDOF 3
