REMARK  4 active torsions:
REMARK  status: ('A' for Active; 'I' for Inactive)
REMARK       I    between atoms: N_2  and  C_3 
REMARK    1  A    between atoms: C_3  and  O_4 
REMARK    2  A    between atoms: O_4  and  C_5 
REMARK    3  A    between atoms: C_7  and  N_8 
REMARK    4  A    between atoms: C_9  and  N_10 
ROOT
HETATM    1  C   LIG     1       1.562  -0.244  -0.159  1.00  0.00     0.106 A 
HETATM    2  C   LIG     1       0.455  -0.502  -0.978  1.00  0.00     0.044 A 
HETATM    3  C   LIG     1      -0.765  -0.914  -0.428  1.00  0.00     0.085 A 
HETATM    4  C   LIG     1      -0.862  -1.109   0.962  1.00  0.00     0.019 A 
HETATM    5  C   LIG     1       0.231  -0.833   1.787  1.00  0.00     0.004 A 
HETATM    6  C   LIG     1       1.435  -0.391   1.234  1.00  0.00     0.025 A 
ENDROOT
BRANCH   1   7
HETATM    7  O   LIG     1       2.750   0.195  -0.763  1.00  0.00    -0.258 OA
BRANCH   7   8
HETATM    8  C   LIG     1       4.042  -0.014  -0.260  1.00  0.00     0.388 C 
HETATM    9  N   LIG     1       5.141   0.727  -0.795  1.00  0.00    -0.210 NA
HETATM   10  C   LIG     1       4.949   1.730  -1.834  1.00  0.00     0.158 C 
HETATM   11  O   LIG     1       4.258  -0.886   0.625  1.00  0.00    -0.236 OA
ENDBRANCH   7   8
ENDBRANCH   1   7
BRANCH   3  12
HETATM   12  N   LIG     1      -1.860  -1.207  -1.311  1.00  0.00    -0.226 NA
HETATM   13  C   LIG     1      -3.124  -0.984  -1.093  1.00  0.00     0.174 C 
BRANCH  13  14
HETATM   14  N   LIG     1      -3.596  -0.254   0.051  1.00  0.00    -0.328 N 
HETATM   15  C   LIG     1      -3.197   1.143   0.236  1.00  0.00     0.127 C 
HETATM   16  C   LIG     1      -4.827  -0.707   0.694  1.00  0.00     0.127 C 
ENDBRANCH  13  14
ENDBRANCH   3  12
TORSDOF 4
