REMARK  3 active torsions:
REMARK  status: ('A' for Active; 'I' for Inactive)
REMARK    1  A    between atoms: C_2  and  C_3 
REMARK    2  A    between atoms: C_2  and  C_5 
REMARK    3  A    between atoms: C_5  and  C_6 
ROOT
HETATM    1  C   LIG     1       0.503  -0.451   0.163  1.00  0.00     0.001 A 
HETATM    2  C   LIG     1       0.730  -1.793   0.481  1.00  0.00     0.095 A 
HETATM    3  N   LIG     1       2.055  -2.035   0.602  1.00  0.00    -0.244 NA
HETATM    4  C   LIG     1       2.670  -0.865   0.365  1.00  0.00     0.081 A 
HETATM    5  C   LIG     1       4.042  -0.614   0.374  1.00  0.00     0.019 A 
HETATM    6  C   LIG     1       4.472   0.696   0.094  1.00  0.00     0.002 A 
HETATM    7  C   LIG     1       3.533   1.714  -0.186  1.00  0.00     0.000 A 
HETATM    8  C   LIG     1       2.155   1.430  -0.188  1.00  0.00     0.001 A 
HETATM    9  C   LIG     1       1.758   0.122   0.093  1.00  0.00     0.015 A 
ENDROOT
BRANCH   1  10
HETATM   10  C   LIG     1      -0.806   0.262  -0.070  1.00  0.00     0.067 C 
BRANCH  10  11
HETATM   11  C   LIG     1      -2.052  -0.635   0.102  1.00  0.00     0.306 C 
HETATM   12  N   LIG     1      -2.190  -1.069   1.497  1.00  0.00     0.616 N 
BRANCH  11  13
HETATM   13  C   LIG     1      -3.342   0.043  -0.424  1.00  0.00     0.039 C 
HETATM   14  C   LIG     1      -3.742   1.323   0.315  1.00  0.00     0.002 C 
ENDBRANCH  11  13
ENDBRANCH  10  11
ENDBRANCH   1  10
TORSDOF 3
