REMARK  1 active torsions:
REMARK  status: ('A' for Active; 'I' for Inactive)
REMARK    1  A    between atoms: C_5  and  C_6 
ROOT
HETATM    1  C   LIG     1       3.685   0.279  -0.407  1.00  0.00     0.034 C 
HETATM    2  C   LIG     1       2.201   0.042  -0.343  1.00  0.00     0.009 C 
HETATM    3  C   LIG     1       1.391   0.762  -1.136  1.00  0.00    -0.027 C 
HETATM    4  C   LIG     1      -0.095   0.534  -1.162  1.00  0.00     0.030 C 
HETATM    5  C   LIG     1      -0.607   0.164   0.241  1.00  0.00     0.030 C 
HETATM    6  C   LIG     1       0.134  -1.076   0.782  1.00  0.00     0.073 C 
HETATM    7  C   LIG     1       1.624  -0.957   0.595  1.00  0.00     0.169 C 
HETATM    8  O   LIG     1       2.380  -1.741   1.229  1.00  0.00    -0.292 OA
ENDROOT
BRANCH   5   9
HETATM    9  C   LIG     1      -2.115  -0.030   0.258  1.00  0.00    -0.043 C 
HETATM   10  C   LIG     1      -2.949   0.875   1.127  1.00  0.00     0.026 C 
HETATM   11  C   LIG     1      -2.709  -0.980  -0.487  1.00  0.00    -0.009 C 
ENDBRANCH   5   9
TORSDOF 1
