REMARK  5 active torsions:
REMARK  status: ('A' for Active; 'I' for Inactive)
REMARK    1  A    between atoms: C_3  and  O_4 
REMARK    2  A    between atoms: O_4  and  C_5 
REMARK    3  A    between atoms: C_10  and  C_11 
REMARK    4  A    between atoms: C_11  and  C_12 
REMARK    5  A    between atoms: C_15  and  O_16 
ROOT
HETATM    1  O   LIG     1      -2.746  -2.230   1.758  1.00  0.00    -0.218 OA
HETATM    2  C   LIG     1      -2.869  -1.724   0.453  1.00  0.00     0.218 C 
HETATM    3  C   LIG     1      -1.668  -0.852   0.128  1.00  0.00     0.191 C 
HETATM    4  C   LIG     1      -2.813  -2.864  -0.572  1.00  0.00     0.325 C 
HETATM    5  N   LIG     1      -1.555  -2.761  -1.319  1.00  0.00     0.343 N 
HETATM    6  C   LIG     1      -0.717  -1.824  -0.568  1.00  0.00     0.291 C 
ENDROOT
BRANCH   6   7
HETATM    7  C   LIG     1       0.344  -1.154  -1.472  1.00  0.00     0.065 C 
BRANCH   7   8
HETATM    8  C   LIG     1       1.248  -0.222  -0.701  1.00  0.00    -0.020 A 
HETATM    9  C   LIG     1       2.099  -0.721   0.298  1.00  0.00    -0.002 A 
HETATM   10  C   LIG     1       2.933   0.142   1.015  1.00  0.00     0.024 A 
HETATM   11  C   LIG     1       2.935   1.522   0.736  1.00  0.00     0.094 A 
HETATM   12  C   LIG     1       2.098   2.015  -0.272  1.00  0.00     0.024 A 
HETATM   13  C   LIG     1       1.266   1.152  -0.990  1.00  0.00    -0.002 A 
BRANCH  11  14
HETATM   14  O   LIG     1       3.749   2.429   1.429  1.00  0.00    -0.328 OA
HETATM   15  C   LIG     1       4.646   2.068   2.474  1.00  0.00     0.181 C 
ENDBRANCH  11  14
ENDBRANCH   7   8
ENDBRANCH   6   7
BRANCH   3  16
HETATM   16  O   LIG     1      -2.072   0.189  -0.768  1.00  0.00    -0.299 OA
BRANCH  16  17
HETATM   17  C   LIG     1      -2.020   1.552  -0.456  1.00  0.00     0.272 C 
HETATM   18  C   LIG     1      -2.405   2.553  -1.490  1.00  0.00     0.106 C 
HETATM   19  O   LIG     1      -1.689   1.943   0.696  1.00  0.00    -0.264 OA
ENDBRANCH  16  17
ENDBRANCH   3  16
TORSDOF 5
