REMARK  0 active torsions:
REMARK  status: ('A' for Active; 'I' for Inactive)
ROOT
HETATM    1  C   LIG     1       0.656  -0.247  -0.035  1.00  0.00     0.003 A 
HETATM    2  C   LIG     1      -0.767  -0.218   0.040  1.00  0.00     0.018 A 
HETATM    3  C   LIG     1      -1.573  -1.381   0.080  1.00  0.00     0.002 A 
HETATM    4  C   LIG     1      -2.965  -1.282   0.153  1.00  0.00     0.000 A 
HETATM    5  C   LIG     1      -3.583  -0.033   0.187  1.00  0.00     0.002 A 
HETATM    6  C   LIG     1      -2.811   1.127   0.148  1.00  0.00     0.019 A 
HETATM    7  C   LIG     1      -1.416   1.046   0.075  1.00  0.00     0.081 A 
HETATM    8  N   LIG     1      -0.691   2.193   0.039  1.00  0.00    -0.244 NA
HETATM    9  C   LIG     1       0.661   2.191  -0.032  1.00  0.00     0.099 A 
HETATM   10  C   LIG     1       1.365   0.984  -0.070  1.00  0.00     0.019 A 
HETATM   11  C   LIG     1       2.767   0.996  -0.143  1.00  0.00     0.002 A 
HETATM   12  C   LIG     1       3.479  -0.201  -0.182  1.00  0.00     0.000 A 
HETATM   13  C   LIG     1       2.801  -1.418  -0.148  1.00  0.00     0.000 A 
HETATM   14  C   LIG     1       1.406  -1.448  -0.075  1.00  0.00     0.000 A 
ENDROOT
TORSDOF 0
