REMARK  0 active torsions:
REMARK  status: ('A' for Active; 'I' for Inactive)
ROOT
HETATM    1  C   LIG     1      -0.569  -0.411   0.050  1.00  0.00     0.083 A 
HETATM    2  C   LIG     1       0.835  -0.280   0.017  1.00  0.00     0.035 A 
HETATM    3  C   LIG     1       1.693  -1.389   0.118  1.00  0.00     0.005 A 
HETATM    4  C   LIG     1       3.076  -1.209   0.080  1.00  0.00     0.021 A 
HETATM    5  C   LIG     1       3.598   0.078  -0.060  1.00  0.00     0.099 A 
HETATM    6  N   LIG     1       2.764   1.146  -0.157  1.00  0.00    -0.244 NA
HETATM    7  C   LIG     1       1.411   1.006  -0.124  1.00  0.00     0.083 A 
HETATM    8  C   LIG     1       0.594   2.136  -0.228  1.00  0.00     0.019 A 
HETATM    9  C   LIG     1      -0.796   2.006  -0.195  1.00  0.00     0.003 A 
HETATM   10  C   LIG     1      -1.384   0.741  -0.056  1.00  0.00     0.018 A 
HETATM   11  C   LIG     1      -2.777   0.595  -0.021  1.00  0.00     0.003 A 
HETATM   12  C   LIG     1      -3.341  -0.674   0.117  1.00  0.00     0.021 A 
HETATM   13  C   LIG     1      -2.506  -1.788   0.220  1.00  0.00     0.099 A 
HETATM   14  N   LIG     1      -1.155  -1.635   0.184  1.00  0.00    -0.244 NA
ENDROOT
TORSDOF 0
