REMARK  5 active torsions:
REMARK  status: ('A' for Active; 'I' for Inactive)
REMARK       I    between atoms: C_2  and  N_10 
REMARK    1  A    between atoms: C_2  and  S_3 
REMARK    2  A    between atoms: S_3  and  C_4 
REMARK    3  A    between atoms: C_4  and  C_5 
REMARK    4  A    between atoms: N_10  and  C_11 
REMARK    5  A    between atoms: N_10  and  C_14 
ROOT
HETATM    1  O   LIG     1      -0.087  -2.165   1.331  1.00  0.00    -0.260 OA
HETATM    2  C   LIG     1       0.382  -1.087   0.883  1.00  0.00     0.284 C 
HETATM    3  N   LIG     1      -0.463   0.080   0.744  1.00  0.00    -0.315 N 
ENDROOT
BRANCH   2   4
HETATM    4  S   LIG     1       2.111  -1.059   0.392  1.00  0.00    -0.049 SA
BRANCH   4   5
HETATM    5  C   LIG     1       1.757  -1.578  -1.320  1.00  0.00     0.106 C 
BRANCH   5   6
HETATM    6  C   LIG     1       3.042  -1.780  -2.080  1.00  0.00     0.068 C 
HETATM    7  C   LIG     1       3.818  -0.748  -2.473  1.00  0.00     0.122 C 
HETATM    8 CL   LIG     1       5.317  -1.016  -3.359  1.00  0.00    -0.069 Cl
HETATM    9 CL   LIG     1       3.384   0.929  -2.146  1.00  0.00    -0.069 Cl
HETATM   10 CL   LIG     1       3.501  -3.441  -2.467  1.00  0.00    -0.084 Cl
ENDBRANCH   5   6
ENDBRANCH   4   5
ENDBRANCH   2   4
BRANCH   3  11
HETATM   11  C   LIG     1       0.133   1.429   0.875  1.00  0.00     0.085 C 
HETATM   12  C   LIG     1       0.121   2.171  -0.467  1.00  0.00     0.024 C 
HETATM   13  C   LIG     1      -0.565   2.242   1.972  1.00  0.00     0.024 C 
ENDBRANCH   3  11
BRANCH   3  14
HETATM   14  C   LIG     1      -1.898  -0.070   0.405  1.00  0.00     0.085 C 
HETATM   15  C   LIG     1      -2.082  -0.897  -0.873  1.00  0.00     0.024 C 
HETATM   16  C   LIG     1      -2.696  -0.658   1.576  1.00  0.00     0.024 C 
ENDBRANCH   3  14
TORSDOF 5
