REMARK  5 active torsions:
REMARK  status: ('A' for Active; 'I' for Inactive)
REMARK       I    between atoms: C_2  and  N_9 
REMARK    1  A    between atoms: C_2  and  S_3 
REMARK    2  A    between atoms: S_3  and  C_4 
REMARK    3  A    between atoms: C_4  and  C_5 
REMARK    4  A    between atoms: N_9  and  C_10 
REMARK    5  A    between atoms: N_9  and  C_13 
ROOT
HETATM    1  O   LIG     1       0.965   0.951   1.100  1.00  0.00    -0.260 OA
HETATM    2  C   LIG     1       0.448   0.497   0.045  1.00  0.00     0.284 C 
HETATM    3  N   LIG     1      -0.966   0.226   0.003  1.00  0.00    -0.315 N 
ENDROOT
BRANCH   2   4
HETATM    4  S   LIG     1       1.454   0.346  -1.437  1.00  0.00    -0.049 SA
BRANCH   4   5
HETATM    5  C   LIG     1       2.473  -1.056  -0.851  1.00  0.00     0.105 C 
BRANCH   5   6
HETATM    6  C   LIG     1       3.502  -0.602   0.150  1.00  0.00     0.058 C 
HETATM    7  C   LIG     1       4.475   0.250  -0.212  1.00  0.00     0.076 C 
HETATM    8 CL   LIG     1       5.707   0.805   0.916  1.00  0.00    -0.081 Cl
HETATM    9 CL   LIG     1       3.419  -1.242   1.792  1.00  0.00    -0.085 Cl
ENDBRANCH   5   6
ENDBRANCH   4   5
ENDBRANCH   2   4
BRANCH   3  10
HETATM   10  C   LIG     1      -1.912   1.341  -0.206  1.00  0.00     0.085 C 
HETATM   11  C   LIG     1      -1.879   2.314   0.977  1.00  0.00     0.024 C 
HETATM   12  C   LIG     1      -1.627   2.066  -1.526  1.00  0.00     0.024 C 
ENDBRANCH   3  10
BRANCH   3  13
HETATM   13  C   LIG     1      -1.485  -1.138   0.227  1.00  0.00     0.085 C 
HETATM   14  C   LIG     1      -1.319  -1.995  -1.030  1.00  0.00     0.024 C 
HETATM   15  C   LIG     1      -0.840  -1.795   1.454  1.00  0.00     0.024 C 
ENDBRANCH   3  13
TORSDOF 5
