REMARK  3 active torsions:
REMARK  status: ('A' for Active; 'I' for Inactive)
REMARK    1  A    between atoms: N_2  and  C_4 
REMARK    2  A    between atoms: C_10  and  O_11 
REMARK    3  A    between atoms: O_11  and  C_12 
REMARK       I    between atoms: C_12  and  N_13 
ROOT
HETATM    1  C   LIG     1      -1.958   0.256  -0.657  1.00  0.00     0.729 A 
HETATM    2  N   LIG     1      -2.247   1.489  -0.165  1.00  0.00    -0.066 NA
HETATM    3  C   LIG     1      -1.345   2.201   0.560  1.00  0.00     0.077 A 
HETATM    4  C   LIG     1      -1.743   3.557   1.065  1.00  0.00     0.053 C 
HETATM    5  C   LIG     1      -0.077   1.645   0.833  1.00  0.00     0.034 A 
HETATM    6  C   LIG     1       0.960   2.408   1.621  1.00  0.00     0.036 C 
HETATM    7  C   LIG     1       0.215   0.377   0.298  1.00  0.00     0.202 A 
HETATM    8  N   LIG     1      -0.732  -0.280  -0.424  1.00  0.00    -0.037 NA
ENDROOT
BRANCH   7   9
HETATM    9  O   LIG     1       1.478  -0.197   0.513  1.00  0.00    -0.241 OA
BRANCH   9  10
HETATM   10  C   LIG     1       1.904  -1.446   0.037  1.00  0.00     0.371 C 
HETATM   11  N   LIG     1       3.232  -1.904   0.344  1.00  0.00    -0.292 N 
HETATM   12  C   LIG     1       4.113  -1.056   1.150  1.00  0.00     0.131 C 
HETATM   13  C   LIG     1       3.688  -3.207  -0.148  1.00  0.00     0.131 C 
HETATM   14  O   LIG     1       1.136  -2.169  -0.656  1.00  0.00    -0.238 OA
ENDBRANCH   9  10
ENDBRANCH   7   9
BRANCH   1  15
HETATM   15  N   LIG     1      -2.935  -0.478  -1.426  1.00  0.00    -0.179 N 
HETATM   16  C   LIG     1      -4.271   0.062  -1.699  1.00  0.00     0.144 C 
HETATM   17  C   LIG     1      -2.594  -1.802  -1.952  1.00  0.00     0.144 C 
ENDBRANCH   1  15
TORSDOF 3
