REMARK  4 active torsions:
REMARK  status: ('A' for Active; 'I' for Inactive)
REMARK    1  A    between atoms: C_2  and  C_3 
REMARK    2  A    between atoms: C_2  and  O_9 
REMARK    3  A    between atoms: O_9  and  C_10 
REMARK    4  A    between atoms: C_10  and  C_11 
ROOT
HETATM    1  C   LIG     1      -1.380  -0.249  -0.074  1.00  0.00     0.063 A 
HETATM    2  C   LIG     1      -1.629   1.036   0.443  1.00  0.00     0.005 A 
HETATM    3  C   LIG     1      -2.829   1.694   0.155  1.00  0.00     0.000 A 
HETATM    4  C   LIG     1      -3.790   1.079  -0.651  1.00  0.00     0.000 A 
HETATM    5  C   LIG     1      -3.554  -0.195  -1.171  1.00  0.00     0.000 A 
HETATM    6  C   LIG     1      -2.356  -0.858  -0.886  1.00  0.00     0.005 A 
ENDROOT
BRANCH   1   7
HETATM    7  C   LIG     1      -0.109  -0.942   0.230  1.00  0.00     0.296 C 
HETATM    8  O   LIG     1       0.117  -2.088  -0.249  1.00  0.00    -0.259 OA
BRANCH   7   9
HETATM    9  O   LIG     1       0.839  -0.326   1.056  1.00  0.00    -0.298 OA
BRANCH   9  10
HETATM   10  C   LIG     1       2.122  -0.884   1.336  1.00  0.00     0.152 C 
BRANCH  10  11
HETATM   11  C   LIG     1       3.063  -0.741   0.136  1.00  0.00     0.033 C 
HETATM   12  C   LIG     1       3.295   0.722  -0.233  1.00  0.00     0.003 C 
ENDBRANCH  10  11
ENDBRANCH   9  10
ENDBRANCH   7   9
ENDBRANCH   1   7
TORSDOF 4
