REMARK  9 active torsions:
REMARK  status: ('A' for Active; 'I' for Inactive)
REMARK    1  A    between atoms: C_2  and  C_3 
REMARK       I    between atoms: C_2  and  N_5 
REMARK    2  A    between atoms: N_5  and  C_6 
REMARK    3  A    between atoms: N_5  and  C_16 
REMARK    4  A    between atoms: C_7  and  C_8 
REMARK    5  A    between atoms: C_13  and  C_14 
REMARK    6  A    between atoms: C_16  and  O_17 
REMARK    7  A    between atoms: O_17  and  C_18 
REMARK    8  A    between atoms: C_18  and  C_19 
REMARK    9  A    between atoms: C_19  and  C_20 
ROOT
HETATM    1  O   LIG     1      -0.007  -1.566  -3.178  1.00  0.00    -0.271 OA
HETATM    2  C   LIG     1      -0.931  -1.071  -2.474  1.00  0.00     0.256 C 
HETATM    3  N   LIG     1      -0.673  -0.733  -1.094  1.00  0.00    -0.273 N 
ENDROOT
BRANCH   3   4
HETATM    4  C   LIG     1      -1.746  -0.310  -0.233  1.00  0.00     0.057 A 
HETATM    5  C   LIG     1      -2.522  -1.270   0.462  1.00  0.00    -0.006 A 
HETATM    6  C   LIG     1      -3.572  -0.842   1.288  1.00  0.00    -0.003 A 
HETATM    7  C   LIG     1      -3.865   0.514   1.417  1.00  0.00    -0.001 A 
HETATM    8  C   LIG     1      -3.111   1.463   0.729  1.00  0.00    -0.003 A 
HETATM    9  C   LIG     1      -2.052   1.067  -0.103  1.00  0.00    -0.006 A 
BRANCH   5  10
HETATM   10  C   LIG     1      -2.225  -2.750   0.375  1.00  0.00     0.028 C 
HETATM   11  C   LIG     1      -1.376  -3.207   1.558  1.00  0.00     0.005 C 
ENDBRANCH   5  10
BRANCH   9  12
HETATM   12  C   LIG     1      -1.244   2.133  -0.804  1.00  0.00     0.028 C 
HETATM   13  C   LIG     1      -0.220   2.747   0.145  1.00  0.00     0.005 C 
ENDBRANCH   9  12
ENDBRANCH   3   4
BRANCH   3  14
HETATM   14  C   LIG     1       0.672  -0.895  -0.535  1.00  0.00     0.258 C 
BRANCH  14  15
HETATM   15  O   LIG     1       1.570  -0.049  -1.225  1.00  0.00    -0.333 OA
BRANCH  15  16
HETATM   16  C   LIG     1       2.886  -0.198  -0.725  1.00  0.00     0.145 C 
BRANCH  16  17
HETATM   17  C   LIG     1       3.183   0.881   0.321  1.00  0.00     0.032 C 
BRANCH  17  18
HETATM   18  C   LIG     1       4.644   0.819   0.782  1.00  0.00     0.003 C 
HETATM   19  C   LIG     1       4.937   1.895   1.823  1.00  0.00     0.000 C 
ENDBRANCH  17  18
ENDBRANCH  16  17
ENDBRANCH  15  16
ENDBRANCH  14  15
ENDBRANCH   3  14
BRANCH   2  20
HETATM   20  C   LIG     1      -2.303  -0.895  -3.070  1.00  0.00     0.183 C 
HETATM   21 CL   LIG     1      -2.283  -1.007  -4.852  1.00  0.00    -0.103 Cl
ENDBRANCH   2  20
TORSDOF 9
