REMARK  0 active torsions:
REMARK  status: ('A' for Active; 'I' for Inactive)
ROOT
HETATM    1  F   LIG     1      -0.731   2.644   0.082  1.00  0.00    -0.202 F 
HETATM    2  C   LIG     1      -0.378   1.335   0.042  1.00  0.00     0.172 A 
HETATM    3  C   LIG     1       0.974   0.974   0.013  1.00  0.00     0.195 A 
HETATM    4  F   LIG     1       1.934   1.932   0.027  1.00  0.00    -0.199 F 
HETATM    5  C   LIG     1       1.336  -0.378  -0.028  1.00  0.00     0.172 A 
HETATM    6  F   LIG     1       2.644  -0.732  -0.056  1.00  0.00    -0.202 F 
HETATM    7  C   LIG     1       0.345  -1.367  -0.042  1.00  0.00     0.062 A 
HETATM    8  C   LIG     1      -1.006  -1.005  -0.014  1.00  0.00     0.145 A 
HETATM    9  F   LIG     1      -1.965  -1.963  -0.027  1.00  0.00    -0.204 F 
HETATM   10  C   LIG     1      -1.367   0.346   0.028  1.00  0.00     0.062 A 
ENDROOT
TORSDOF 0
