REMARK  3 active torsions:
REMARK  status: ('A' for Active; 'I' for Inactive)
REMARK    1  A    between atoms: C_2  and  C_3 
REMARK    2  A    between atoms: C_3  and  C_6 
REMARK    3  A    between atoms: C_6  and  C_7 
ROOT
HETATM    1  C   LIG     1      -0.867  -0.293  -0.098  1.00  0.00     0.031 C 
HETATM    2  C   LIG     1      -1.998  -0.430   0.946  1.00  0.00     0.003 C 
HETATM    3  C   LIG     1      -0.789  -1.613  -0.896  1.00  0.00     0.003 C 
ENDROOT
BRANCH   1   4
HETATM    4  C   LIG     1      -1.216   0.866  -1.067  1.00  0.00     0.182 C 
HETATM    5  O   LIG     1      -1.218   2.096  -0.394  1.00  0.00    -0.221 OA
ENDBRANCH   1   4
BRANCH   1   6
HETATM    6  C   LIG     1       0.470  -0.032   0.664  1.00  0.00     0.003 C 
BRANCH   6   7
HETATM    7  C   LIG     1       1.705   0.179  -0.232  1.00  0.00     0.000 C 
HETATM    8  C   LIG     1       2.959   0.401   0.610  1.00  0.00     0.000 C 
ENDBRANCH   6   7
ENDBRANCH   1   6
TORSDOF 3
