REMARK  0 active torsions:
REMARK  status: ('A' for Active; 'I' for Inactive)
ROOT
HETATM    1  C   LIG     1       0.234  -0.323  -0.154  1.00  0.00    -0.018 A 
HETATM    2  C   LIG     1       1.638  -0.331  -0.168  1.00  0.00    -0.004 A 
HETATM    3  C   LIG     1       2.369  -1.414  -0.683  1.00  0.00    -0.000 A 
HETATM    4  C   LIG     1       3.766  -1.380  -0.678  1.00  0.00    -0.000 A 
HETATM    5  C   LIG     1       4.443  -0.272  -0.161  1.00  0.00    -0.000 A 
HETATM    6  C   LIG     1       3.729   0.814   0.355  1.00  0.00    -0.000 A 
HETATM    7  C   LIG     1       2.326   0.798   0.358  1.00  0.00    -0.000 A 
HETATM    8  C   LIG     1       1.598   1.891   0.878  1.00  0.00    -0.000 A 
HETATM    9  C   LIG     1       0.196   1.876   0.881  1.00  0.00    -0.000 A 
HETATM   10  C   LIG     1      -0.458   0.759   0.361  1.00  0.00    -0.004 A 
HETATM   11  C   LIG     1      -1.875   0.492   0.246  1.00  0.00    -0.004 A 
HETATM   12  C   LIG     1      -2.970   1.273   0.621  1.00  0.00    -0.000 A 
HETATM   13  C   LIG     1      -4.258   0.763   0.391  1.00  0.00    -0.000 A 
HETATM   14  C   LIG     1      -4.427  -0.503  -0.203  1.00  0.00    -0.000 A 
HETATM   15  C   LIG     1      -3.309  -1.270  -0.573  1.00  0.00    -0.004 A 
HETATM   16  C   LIG     1      -2.035  -0.750  -0.337  1.00  0.00    -0.018 A 
HETATM   17  C   LIG     1      -0.713  -1.386  -0.647  1.00  0.00     0.052 A 
ENDROOT
TORSDOF 0
