REMARK  5 active torsions:
REMARK  status: ('A' for Active; 'I' for Inactive)
REMARK    1  A    between atoms: C_2  and  C_4 
REMARK    2  A    between atoms: C_4  and  C_5 
REMARK    3  A    between atoms: C_5  and  C_10 
REMARK    4  A    between atoms: C_5  and  C_7 
REMARK    5  A    between atoms: C_10  and  C_13 
ROOT
HETATM    1  C   LIG     1       0.332   0.658   0.336  1.00  0.00     0.098 C 
HETATM    2  C   LIG     1       0.345   0.752   1.890  1.00  0.00     0.012 C 
ENDROOT
BRANCH   1   3
HETATM    3  C   LIG     1       1.833   0.346  -0.051  1.00  0.00     0.108 C 
BRANCH   3   4
HETATM    4  C   LIG     1       2.151   0.098  -1.506  1.00  0.00     0.186 C 
HETATM    5  O   LIG     1       2.755  -1.092  -1.905  1.00  0.00    -0.647 OA
HETATM    6  O   LIG     1       1.933   0.984  -2.372  1.00  0.00    -0.647 OA
ENDBRANCH   3   4
ENDBRANCH   1   3
BRANCH   1   7
HETATM    7  C   LIG     1      -0.702  -0.472  -0.171  1.00  0.00     0.088 C 
HETATM    8  C   LIG     1      -0.171  -1.906   0.089  1.00  0.00     0.011 C 
HETATM    9  C   LIG     1      -0.981  -0.371  -1.700  1.00  0.00     0.011 C 
BRANCH   7  10
HETATM   10  C   LIG     1      -2.046  -0.375   0.557  1.00  0.00     0.185 C 
HETATM   11  O   LIG     1      -2.175  -0.861   1.857  1.00  0.00    -0.647 OA
HETATM   12  O   LIG     1      -3.062   0.110  -0.014  1.00  0.00    -0.647 OA
ENDBRANCH   7  10
ENDBRANCH   1   7
BRANCH   1  13
HETATM   13  C   LIG     1      -0.070   2.058  -0.160  1.00  0.00     0.185 C 
HETATM   14  O   LIG     1      -1.287   2.643   0.193  1.00  0.00    -0.647 OA
HETATM   15  O   LIG     1       0.719   2.746  -0.860  1.00  0.00    -0.647 OA
ENDBRANCH   1  13
TORSDOF 5
