REMARK  0 active torsions:
REMARK  status: ('A' for Active; 'I' for Inactive)
ROOT
HETATM    1  C   LIG     1      -0.790  -0.075   1.179  1.00  0.00     0.019 A 
HETATM    2  C   LIG     1      -1.792  -0.203   2.137  1.00  0.00     0.002 A 
HETATM    3  C   LIG     1      -3.127  -0.133   1.708  1.00  0.00     0.000 A 
HETATM    4  C   LIG     1      -1.067   0.117  -0.160  1.00  0.00     0.081 A 
HETATM    5  N   LIG     1       0.075   0.211  -0.883  1.00  0.00    -0.246 NA
HETATM    6  C   LIG     1       1.079   0.076   0.016  1.00  0.00     0.081 A 
HETATM    7  C   LIG     1       2.463   0.100  -0.222  1.00  0.00     0.018 A 
HETATM    8  C   LIG     1       3.009   0.277  -1.505  1.00  0.00     0.002 A 
HETATM    9  C   LIG     1       4.396   0.292  -1.679  1.00  0.00     0.000 A 
HETATM   10  C   LIG     1       5.247   0.130  -0.583  1.00  0.00     0.000 A 
HETATM   11  C   LIG     1       4.720  -0.047   0.700  1.00  0.00     0.000 A 
HETATM   12  C   LIG     1       3.331  -0.065   0.896  1.00  0.00     0.002 A 
HETATM   13  C   LIG     1       2.795  -0.245   2.195  1.00  0.00     0.000 A 
HETATM   14  C   LIG     1       1.407  -0.264   2.400  1.00  0.00     0.002 A 
HETATM   15  C   LIG     1       0.581  -0.101   1.291  1.00  0.00     0.019 A 
HETATM   16  C   LIG     1      -2.391   0.192  -0.622  1.00  0.00     0.018 A 
HETATM   17  C   LIG     1      -3.436   0.063   0.340  1.00  0.00     0.002 A 
HETATM   18  C   LIG     1      -4.773   0.133  -0.081  1.00  0.00     0.000 A 
HETATM   19  C   LIG     1      -5.076   0.326  -1.432  1.00  0.00     0.000 A 
HETATM   20  C   LIG     1      -4.052   0.452  -2.374  1.00  0.00     0.000 A 
HETATM   21  C   LIG     1      -2.713   0.386  -1.976  1.00  0.00     0.002 A 
ENDROOT
TORSDOF 0
