REMARK  5 active torsions:
REMARK  status: ('A' for Active; 'I' for Inactive)
REMARK    1  A    between atoms: C_2  and  C_3 
REMARK    2  A    between atoms: C_3  and  C_4 
REMARK    3  A    between atoms: C_4  and  C_5 
REMARK    4  A    between atoms: C_9  and  N_10 
REMARK    5  A    between atoms: N_10  and  C_11 
ROOT
HETATM    1  C   LIG     1      -0.280  -0.583   0.148  1.00  0.00     0.036 A 
HETATM    2  C   LIG     1       0.070  -0.581   1.520  1.00  0.00     0.228 A 
HETATM    3  O   LIG     1      -0.801  -1.028   2.517  1.00  0.00    -0.169 OA
HETATM    4  N   LIG     1       1.292  -0.131   1.903  1.00  0.00    -0.033 NA
HETATM    5  C   LIG     1       2.198   0.326   1.004  1.00  0.00     0.747 A 
HETATM    6  N   LIG     1       1.882   0.349  -0.314  1.00  0.00    -0.064 NA
HETATM    7  C   LIG     1       0.677  -0.083  -0.770  1.00  0.00     0.077 A 
HETATM    8  C   LIG     1       0.418  -0.013  -2.247  1.00  0.00     0.053 C 
ENDROOT
BRANCH   1   9
HETATM    9  C   LIG     1      -1.632  -1.092  -0.316  1.00  0.00     0.031 C 
BRANCH   9  10
HETATM   10  C   LIG     1      -2.713  -0.019  -0.132  1.00  0.00     0.005 C 
BRANCH  10  11
HETATM   11  C   LIG     1      -4.086  -0.541  -0.571  1.00  0.00     0.000 C 
HETATM   12  C   LIG     1      -5.162   0.526  -0.395  1.00  0.00     0.000 C 
ENDBRANCH  10  11
ENDBRANCH   9  10
ENDBRANCH   1   9
BRANCH   5  13
HETATM   13  N   LIG     1       3.475   0.791   1.458  1.00  0.00    -0.086 NA
BRANCH  13  14
HETATM   14  C   LIG     1       4.509   1.283   0.549  1.00  0.00     0.145 C 
HETATM   15  C   LIG     1       5.180   0.124  -0.179  1.00  0.00     0.029 C 
ENDBRANCH  13  14
ENDBRANCH   5  13
TORSDOF 5
