REMARK  0 active torsions:
REMARK  status: ('A' for Active; 'I' for Inactive)
ROOT
HETATM    1  C   LIG     1       0.383   0.259   0.215  1.00  0.00    -0.004 A 
HETATM    2  C   LIG     1      -0.672   1.145  -0.003  1.00  0.00    -0.000 A 
HETATM    3  C   LIG     1      -1.983   0.631  -0.015  1.00  0.00    -0.000 A 
HETATM    4  C   LIG     1      -3.078   1.482  -0.230  1.00  0.00    -0.000 A 
HETATM    5  C   LIG     1      -4.377   0.966  -0.241  1.00  0.00     0.000 A 
HETATM    6  C   LIG     1      -4.595  -0.400  -0.038  1.00  0.00    -0.000 A 
HETATM    7  C   LIG     1      -3.517  -1.262   0.177  1.00  0.00    -0.000 A 
HETATM    8  C   LIG     1      -2.206  -0.763   0.192  1.00  0.00    -0.000 A 
HETATM    9  C   LIG     1      -1.114  -1.627   0.409  1.00  0.00    -0.004 A 
HETATM   10  C   LIG     1       0.173  -1.092   0.416  1.00  0.00    -0.018 A 
HETATM   11  C   LIG     1       1.467  -1.826   0.627  1.00  0.00     0.052 A 
HETATM   12  C   LIG     1       2.446  -0.694   0.517  1.00  0.00    -0.018 A 
HETATM   13  C   LIG     1       1.807   0.509   0.278  1.00  0.00    -0.004 A 
HETATM   14  C   LIG     1       2.516   1.702   0.138  1.00  0.00    -0.000 A 
HETATM   15  C   LIG     1       3.916   1.658   0.246  1.00  0.00    -0.000 A 
HETATM   16  C   LIG     1       4.573   0.435   0.489  1.00  0.00    -0.000 A 
HETATM   17  C   LIG     1       3.836  -0.753   0.627  1.00  0.00    -0.004 A 
ENDROOT
TORSDOF 0
