REMARK  0 active torsions:
REMARK  status: ('A' for Active; 'I' for Inactive)
ROOT
HETATM    1  C   LIG     1      -2.292  -0.913  -0.438  1.00  0.00     0.054 C 
HETATM    2  C   LIG     1      -1.311   0.152  -0.053  1.00  0.00     0.082 A 
HETATM    3  N   LIG     1      -1.762   1.393   0.277  1.00  0.00    -0.227 NA
HETATM    4  C   LIG     1      -0.906   2.388   0.632  1.00  0.00     0.200 A 
HETATM    5  N   LIG     1       0.433   2.160   0.665  1.00  0.00    -0.203 NA
HETATM    6  C   LIG     1       0.935   0.940   0.345  1.00  0.00     0.183 A 
HETATM    7  C   LIG     1       0.068  -0.102  -0.025  1.00  0.00     0.131 A 
HETATM    8  N   LIG     1       0.585  -1.320  -0.343  1.00  0.00    -0.238 NA
HETATM    9  C   LIG     1       1.926  -1.541  -0.308  1.00  0.00     0.120 A 
HETATM   10  C   LIG     1       2.788  -0.503   0.060  1.00  0.00     0.121 A 
HETATM   11  N   LIG     1       2.275   0.715   0.379  1.00  0.00    -0.222 NA
ENDROOT
TORSDOF 0
