REMARK  0 active torsions:
REMARK  status: ('A' for Active; 'I' for Inactive)
ROOT
HETATM    1  C   LIG     1       3.276   0.088   0.284  1.00  0.00     0.074 C 
HETATM    2  C   LIG     1       1.814  -0.145   0.095  1.00  0.00     0.141 A 
HETATM    3  N   LIG     1       0.911   0.774   0.536  1.00  0.00    -0.210 NA
HETATM    4  C   LIG     1      -0.421   0.572   0.369  1.00  0.00     0.183 A 
HETATM    5  N   LIG     1      -1.321   1.490   0.809  1.00  0.00    -0.222 NA
HETATM    6  C   LIG     1      -2.657   1.292   0.644  1.00  0.00     0.121 A 
HETATM    7  C   LIG     1      -3.111   0.128   0.012  1.00  0.00     0.120 A 
HETATM    8  N   LIG     1      -2.212  -0.792  -0.430  1.00  0.00    -0.238 NA
HETATM    9  C   LIG     1      -0.878  -0.594  -0.265  1.00  0.00     0.136 A 
HETATM   10  C   LIG     1       0.060  -1.524  -0.709  1.00  0.00     0.122 A 
HETATM   11  N   LIG     1       1.385  -1.281  -0.521  1.00  0.00    -0.228 NA
ENDROOT
TORSDOF 0
