REMARK  10 active torsions:
REMARK  status: ('A' for Active; 'I' for Inactive)
REMARK    1  A    between atoms: C_2  and  C_4 
REMARK    2  A    between atoms: C_4  and  C_5 
REMARK    3  A    between atoms: C_5  and  C_6 
REMARK    4  A    between atoms: C_6  and  C_7 
REMARK    5  A    between atoms: C_7  and  C_8 
REMARK    6  A    between atoms: C_8  and  C_9 
REMARK    7  A    between atoms: C_9  and  C_10 
REMARK    8  A    between atoms: C_10  and  C_11 
REMARK    9  A    between atoms: C_11  and  C_12 
REMARK   10  A    between atoms: C_12  and  C_13 
ROOT
HETATM    1  C   LIG     1       1.676   1.595   0.192  1.00  0.00     0.000 C 
ENDROOT
BRANCH   1   2
HETATM    2  C   LIG     1       2.262   0.177   0.261  1.00  0.00     0.001 C 
BRANCH   2   3
HETATM    3  C   LIG     1       3.681   0.141  -0.320  1.00  0.00     0.011 C 
BRANCH   3   4
HETATM    4  C   LIG     1       4.263  -1.274  -0.263  1.00  0.00     0.098 C 
BRANCH   4   5
HETATM    5  C   LIG     1       5.650  -1.294  -0.830  1.00  0.00     0.185 C 
HETATM    6  O   LIG     1       5.831  -1.598  -2.038  1.00  0.00    -0.647 OA
HETATM    7  O   LIG     1       6.741  -0.936  -0.043  1.00  0.00    -0.647 OA
ENDBRANCH   4   5
ENDBRANCH   3   4
ENDBRANCH   2   3
ENDBRANCH   1   2
BRANCH   1   8
HETATM    8  C   LIG     1       0.310   1.706   0.889  1.00  0.00     0.000 C 
BRANCH   8   9
HETATM    9  C   LIG     1      -0.811   1.000   0.112  1.00  0.00     0.000 C 
BRANCH   9  10
HETATM   10  C   LIG     1      -2.175   1.240   0.777  1.00  0.00     0.000 C 
BRANCH  10  11
HETATM   11  C   LIG     1      -3.342   0.652  -0.033  1.00  0.00     0.002 C 
BRANCH  11  12
HETATM   12  C   LIG     1      -3.383  -0.884   0.017  1.00  0.00     0.041 C 
BRANCH  12  13
HETATM   13  C   LIG     1      -4.614  -1.445  -0.704  1.00  0.00     0.338 C 
HETATM   14  N   LIG     1      -5.842  -1.075  -0.005  1.00  0.00     0.618 N 
ENDBRANCH  12  13
ENDBRANCH  11  12
ENDBRANCH  10  11
ENDBRANCH   9  10
ENDBRANCH   8   9
ENDBRANCH   1   8
TORSDOF 10
