REMARK  1 active torsions:
REMARK  status: ('A' for Active; 'I' for Inactive)
REMARK    1  A    between atoms: C_8  and  C_9 
ROOT
HETATM    1 CL   LIG     1      -0.604  -1.094   2.474  1.00  0.00    -0.082 Cl
HETATM    2  C   LIG     1      -1.433  -0.347   1.112  1.00  0.00     0.059 A 
HETATM    3  C   LIG     1      -2.824  -0.193   1.177  1.00  0.00     0.023 A 
HETATM    4  C   LIG     1      -3.523   0.371   0.106  1.00  0.00     0.059 A 
HETATM    5 CL   LIG     1      -5.264   0.559   0.196  1.00  0.00    -0.082 Cl
HETATM    6  C   LIG     1      -2.833   0.781  -1.038  1.00  0.00     0.011 A 
HETATM    7  C   LIG     1      -1.446   0.632  -1.112  1.00  0.00     0.002 A 
HETATM    8  C   LIG     1      -0.735   0.067  -0.042  1.00  0.00     0.011 A 
ENDROOT
BRANCH   8   9
HETATM    9  C   LIG     1       0.735  -0.067  -0.139  1.00  0.00     0.011 A 
HETATM   10  C   LIG     1       1.553   0.719   0.689  1.00  0.00     0.002 A 
HETATM   11  C   LIG     1       2.944   0.622   0.606  1.00  0.00     0.011 A 
HETATM   12  C   LIG     1       3.531  -0.259  -0.306  1.00  0.00     0.059 A 
HETATM   13  C   LIG     1       2.726  -1.045  -1.136  1.00  0.00     0.023 A 
HETATM   14 CL   LIG     1       5.279  -0.379  -0.409  1.00  0.00    -0.082 Cl
HETATM   15  C   LIG     1       1.331  -0.954  -1.059  1.00  0.00     0.059 A 
HETATM   16 CL   LIG     1       0.361  -1.991  -2.101  1.00  0.00    -0.082 Cl
ENDBRANCH   8   9
TORSDOF 1
