REMARK  1 active torsions:
REMARK  status: ('A' for Active; 'I' for Inactive)
REMARK    1  A    between atoms: O_2  and  C_3 
ROOT
HETATM    1  C   LIG     1       0.386   0.153  -0.155  1.00  0.00     0.120 A 
HETATM    2  C   LIG     1      -0.233   1.411  -0.035  1.00  0.00     0.154 A 
HETATM    3  O   LIG     1       0.440   2.582  -0.383  1.00  0.00    -0.188 OA
HETATM    4  C   LIG     1      -1.545   1.504   0.441  1.00  0.00     0.042 A 
HETATM    5  C   LIG     1      -2.254   0.353   0.800  1.00  0.00     0.070 A 
HETATM    6 CL   LIG     1      -3.901   0.518   1.393  1.00  0.00    -0.081 Cl
HETATM    7  C   LIG     1      -1.645  -0.905   0.683  1.00  0.00     0.070 A 
HETATM    8 CL   LIG     1      -2.502  -2.377   1.125  1.00  0.00    -0.081 Cl
HETATM    9  C   LIG     1      -0.332  -1.003   0.208  1.00  0.00     0.039 A 
ENDROOT
BRANCH   1  10
HETATM   10  O   LIG     1       1.704   0.090  -0.636  1.00  0.00    -0.326 OA
HETATM   11  C   LIG     1       2.444  -1.115  -0.805  1.00  0.00     0.181 C 
ENDBRANCH   1  10
TORSDOF 1
