REMARK  2 active torsions:
REMARK  status: ('A' for Active; 'I' for Inactive)
REMARK    1  A    between atoms: C_3  and  C_4 
REMARK       I    between atoms: C_4  and  N_5 
REMARK    2  A    between atoms: N_5  and  C_6 
ROOT
HETATM    1  C   LIG     1      -0.014   0.376  -0.463  1.00  0.00     0.277 C 
HETATM    2  N   LIG     1       0.846  -0.684  -0.014  1.00  0.00    -0.208 NA
HETATM    3  O   LIG     1       0.471   1.344  -1.110  1.00  0.00    -0.266 OA
ENDROOT
BRANCH   1   4
HETATM    4  C   LIG     1      -1.472   0.327  -0.167  1.00  0.00     0.054 C 
HETATM    5  C   LIG     1      -2.419   0.805  -1.014  1.00  0.00     0.073 C 
HETATM    6  C   LIG     1      -2.087   1.432  -2.337  1.00  0.00     0.058 C 
HETATM    7  O   LIG     1      -3.781   0.709  -0.684  1.00  0.00    -0.335 OA
HETATM    8  C   LIG     1      -4.281   0.198   0.554  1.00  0.00     0.149 C 
HETATM    9  C   LIG     1      -3.206   0.214   1.638  1.00  0.00     0.038 C 
HETATM   10  C   LIG     1      -1.911  -0.383   1.093  1.00  0.00     0.035 C 
ENDBRANCH   1   4
BRANCH   2  11
HETATM   11  C   LIG     1       2.279  -0.584   0.051  1.00  0.00     0.085 A 
HETATM   12  C   LIG     1       3.060  -1.733  -0.154  1.00  0.00     0.019 A 
HETATM   13  C   LIG     1       4.454  -1.664  -0.073  1.00  0.00     0.002 A 
HETATM   14  C   LIG     1       5.079  -0.452   0.227  1.00  0.00     0.000 A 
HETATM   15  C   LIG     1       4.311   0.692   0.456  1.00  0.00     0.002 A 
HETATM   16  C   LIG     1       2.916   0.628   0.375  1.00  0.00     0.019 A 
ENDBRANCH   2  11
TORSDOF 2
