REMARK  2 active torsions:
REMARK  status: ('A' for Active; 'I' for Inactive)
REMARK    1  A    between atoms: C_3  and  C_4 
REMARK       I    between atoms: C_4  and  N_5 
REMARK    2  A    between atoms: N_5  and  C_6 
ROOT
HETATM    1  C   LIG     1      -0.718   0.036  -0.132  1.00  0.00     0.281 C 
HETATM    2  N   LIG     1       0.376  -0.503   0.630  1.00  0.00    -0.208 NA
HETATM    3  O   LIG     1      -0.534   0.402  -1.323  1.00  0.00    -0.265 OA
ENDROOT
BRANCH   1   4
HETATM    4  C   LIG     1      -2.060   0.149   0.479  1.00  0.00     0.079 A 
HETATM    5  C   LIG     1      -3.294   0.331  -0.141  1.00  0.00     0.083 A 
HETATM    6  C   LIG     1      -3.600   0.379  -1.605  1.00  0.00     0.059 C 
HETATM    7  O   LIG     1      -4.229   0.445   0.775  1.00  0.00    -0.309 OA
HETATM    8  C   LIG     1      -3.682   0.342   1.963  1.00  0.00     0.122 A 
HETATM    9  C   LIG     1      -2.322   0.152   1.836  1.00  0.00     0.033 A 
ENDBRANCH   1   4
BRANCH   2  10
HETATM   10  C   LIG     1       1.759  -0.361   0.260  1.00  0.00     0.085 A 
HETATM   11  C   LIG     1       2.670  -1.375   0.596  1.00  0.00     0.019 A 
HETATM   12  C   LIG     1       4.023  -1.249   0.267  1.00  0.00     0.002 A 
HETATM   13  C   LIG     1       4.481  -0.103  -0.387  1.00  0.00     0.000 A 
HETATM   14  C   LIG     1       3.587   0.923  -0.705  1.00  0.00     0.002 A 
HETATM   15  C   LIG     1       2.233   0.800  -0.379  1.00  0.00     0.019 A 
ENDBRANCH   2  10
TORSDOF 2
