REMARK  2 active torsions:
REMARK  status: ('A' for Active; 'I' for Inactive)
REMARK    1  A    between atoms: C_2  and  C_3 
REMARK    2  A    between atoms: C_3  and  O_4 
ROOT
HETATM    1  O   LIG     1       1.190  -0.434  -2.288  1.00  0.00    -0.207 OA
HETATM    2  C   LIG     1       0.843  -0.273  -0.932  1.00  0.00     0.241 A 
HETATM    3  C   LIG     1      -0.365  -1.103  -0.569  1.00  0.00     0.019 A 
HETATM    4  C   LIG     1      -1.413  -0.307  -0.143  1.00  0.00    -0.001 A 
HETATM    5  C   LIG     1      -2.637  -0.851   0.246  1.00  0.00     0.001 A 
HETATM    6  C   LIG     1      -2.790  -2.246   0.196  1.00  0.00     0.011 A 
HETATM    7  C   LIG     1      -1.728  -3.065  -0.239  1.00  0.00     0.058 A 
HETATM    8 CL   LIG     1      -1.933  -4.806  -0.296  1.00  0.00    -0.082 Cl
HETATM    9  C   LIG     1      -0.503  -2.493  -0.627  1.00  0.00     0.010 A 
HETATM   10  C   LIG     1      -0.988   1.077  -0.199  1.00  0.00    -0.001 A 
HETATM   11  C   LIG     1       0.317   1.116  -0.658  1.00  0.00     0.018 A 
HETATM   12  C   LIG     1       0.979   2.336  -0.820  1.00  0.00    -0.001 A 
HETATM   13  C   LIG     1       0.295   3.521  -0.503  1.00  0.00    -0.000 A 
HETATM   14  C   LIG     1      -1.033   3.474  -0.034  1.00  0.00    -0.000 A 
HETATM   15  C   LIG     1      -1.688   2.241   0.122  1.00  0.00    -0.000 A 
ENDROOT
BRANCH   2  16
HETATM   16  C   LIG     1       2.005  -0.594  -0.033  1.00  0.00     0.308 C 
HETATM   17  O   LIG     1       3.109  -0.952  -0.528  1.00  0.00    -0.261 OA
BRANCH  16  18
HETATM   18  O   LIG     1       1.851  -0.493   1.354  1.00  0.00    -0.297 OA
HETATM   19  C   LIG     1       2.904  -0.782   2.265  1.00  0.00     0.185 C 
ENDBRANCH  16  18
ENDBRANCH   2  16
TORSDOF 2
