REMARK  1 active torsions:
REMARK  status: ('A' for Active; 'I' for Inactive)
REMARK    1  A    between atoms: C_11  and  O_12 
ROOT
HETATM    1  O   LIG     1      -0.718   1.637   0.963  1.00  0.00    -0.187 OA
HETATM    2  C   LIG     1       0.137   0.675   0.419  1.00  0.00     0.165 A 
HETATM    3  C   LIG     1       1.535   0.802   0.569  1.00  0.00     0.096 A 
HETATM    4 CL   LIG     1       2.220   2.176   1.443  1.00  0.00    -0.079 Cl
HETATM    5  C   LIG     1       2.394  -0.165   0.021  1.00  0.00     0.082 A 
HETATM    6 CL   LIG     1       4.143  -0.004   0.209  1.00  0.00    -0.081 Cl
HETATM    7  C   LIG     1       1.864  -1.262  -0.676  1.00  0.00     0.082 A 
HETATM    8 CL   LIG     1       2.943  -2.478  -1.364  1.00  0.00    -0.081 Cl
HETATM    9  C   LIG     1       0.475  -1.391  -0.826  1.00  0.00     0.093 A 
HETATM   10 CL   LIG     1      -0.199  -2.767  -1.701  1.00  0.00    -0.079 Cl
HETATM   11  C   LIG     1      -0.398  -0.433  -0.285  1.00  0.00     0.132 A 
ENDROOT
BRANCH  11  12
HETATM   12  O   LIG     1      -1.777  -0.640  -0.482  1.00  0.00    -0.325 OA
HETATM   13  C   LIG     1      -2.837   0.194  -0.026  1.00  0.00     0.181 C 
ENDBRANCH  11  12
TORSDOF 1
