REMARK  0 active torsions:
REMARK  status: ('A' for Active; 'I' for Inactive)
ROOT
HETATM    1  C   LIG     1      -1.183  -0.670  -0.203  1.00  0.00     0.018 A 
HETATM    2  C   LIG     1      -2.382  -1.388  -0.319  1.00  0.00     0.002 A 
HETATM    3  C   LIG     1      -3.584  -0.816   0.111  1.00  0.00     0.000 A 
HETATM    4  C   LIG     1      -3.595   0.471   0.657  1.00  0.00     0.002 A 
HETATM    5  C   LIG     1      -2.405   1.195   0.777  1.00  0.00     0.019 A 
HETATM    6  C   LIG     1      -1.197   0.632   0.349  1.00  0.00     0.081 A 
HETATM    7  N   LIG     1      -0.038   1.335   0.465  1.00  0.00    -0.246 NA
HETATM    8  C   LIG     1       1.155   0.822   0.061  1.00  0.00     0.081 A 
HETATM    9  C   LIG     1       1.216  -0.475  -0.497  1.00  0.00     0.018 A 
HETATM   10  C   LIG     1       2.451  -0.996  -0.911  1.00  0.00     0.002 A 
HETATM   11  C   LIG     1       3.614  -0.233  -0.771  1.00  0.00     0.000 A 
HETATM   12  C   LIG     1       3.551   1.051  -0.218  1.00  0.00     0.002 A 
HETATM   13  C   LIG     1       2.325   1.578   0.197  1.00  0.00     0.019 A 
HETATM   14  C   LIG     1       0.035  -1.218  -0.626  1.00  0.00     0.003 A 
ENDROOT
TORSDOF 0
