REMARK  7 active torsions:
REMARK  status: ('A' for Active; 'I' for Inactive)
REMARK    1  A    between atoms: C_2  and  C_18 
REMARK    2  A    between atoms: C_2  and  O_3 
REMARK    3  A    between atoms: O_3  and  C_4 
REMARK    4  A    between atoms: C_4  and  C_5 
REMARK    5  A    between atoms: C_9  and  O_10 
REMARK    6  A    between atoms: O_10  and  C_11 
REMARK    7  A    between atoms: C_19  and  C_20 
ROOT
HETATM    1  C   LIG     1       1.265   1.860  -1.049  1.00  0.00     0.010 A 
HETATM    2  C   LIG     1       1.366   1.171  -2.267  1.00  0.00    -0.002 A 
HETATM    3  C   LIG     1       2.275   0.120  -2.407  1.00  0.00     0.002 A 
HETATM    4  C   LIG     1       3.095  -0.246  -1.337  1.00  0.00     0.025 A 
HETATM    5  C   LIG     1       3.023   0.454  -0.118  1.00  0.00     0.100 A 
HETATM    6  C   LIG     1       2.097   1.495   0.022  1.00  0.00     0.023 A 
ENDROOT
BRANCH   1   7
HETATM    7  C   LIG     1       0.254   2.964  -0.893  1.00  0.00     0.178 C 
BRANCH   7   8
HETATM    8  O   LIG     1      -1.069   2.441  -0.997  1.00  0.00    -0.297 OA
BRANCH   8   9
HETATM    9  C   LIG     1      -1.649   1.630  -0.016  1.00  0.00     0.272 C 
HETATM   10  O   LIG     1      -1.052   1.408   1.073  1.00  0.00    -0.264 OA
BRANCH   9  11
HETATM   11  C   LIG     1      -3.023   1.074  -0.239  1.00  0.00     0.091 A 
HETATM   12  C   LIG     1      -3.156  -0.431   0.041  1.00  0.00     0.031 A 
HETATM   13  C   LIG     1      -3.199   0.090  -1.403  1.00  0.00     0.013 A 
HETATM   14  C   LIG     1      -1.980  -0.283  -2.260  1.00  0.00     0.001 C 
HETATM   15  C   LIG     1      -4.550   0.174  -2.129  1.00  0.00     0.001 C 
BRANCH  12  16
HETATM   16  C   LIG     1      -4.466  -0.825   0.681  1.00  0.00    -0.034 C 
HETATM   17  C   LIG     1      -4.744  -0.606   1.982  1.00  0.00    -0.048 C 
HETATM   18  C   LIG     1      -6.069  -1.074   2.527  1.00  0.00     0.026 C 
HETATM   19  C   LIG     1      -3.755   0.075   2.898  1.00  0.00     0.026 C 
ENDBRANCH  12  16
ENDBRANCH   9  11
ENDBRANCH   8   9
ENDBRANCH   7   8
ENDBRANCH   1   7
BRANCH   5  20
HETATM   20  O   LIG     1       3.815   0.107   0.986  1.00  0.00    -0.307 OA
BRANCH  20  21
HETATM   21  C   LIG     1       5.100  -0.453   0.925  1.00  0.00     0.100 A 
HETATM   22  C   LIG     1       5.995  -0.153  -0.119  1.00  0.00     0.025 A 
HETATM   23  C   LIG     1       7.273  -0.722  -0.135  1.00  0.00     0.002 A 
HETATM   24  C   LIG     1       7.670  -1.581   0.893  1.00  0.00     0.000 A 
HETATM   25  C   LIG     1       6.793  -1.865   1.944  1.00  0.00     0.002 A 
HETATM   26  C   LIG     1       5.515  -1.297   1.962  1.00  0.00     0.025 A 
ENDBRANCH  20  21
ENDBRANCH   5  20
TORSDOF 7
