REMARK  0 active torsions:
REMARK  status: ('A' for Active; 'I' for Inactive)
ROOT
HETATM    1  C   LIG     1       1.177  -0.749   0.184  1.00  0.00     0.123 A 
HETATM    2  C   LIG     1       2.347  -1.493   0.366  1.00  0.00     0.027 A 
HETATM    3  C   LIG     1       3.588  -0.847   0.383  1.00  0.00     0.002 A 
HETATM    4  C   LIG     1       3.661   0.541   0.217  1.00  0.00     0.002 A 
HETATM    5  C   LIG     1       2.492   1.288   0.034  1.00  0.00     0.027 A 
HETATM    6  C   LIG     1       1.250   0.646   0.017  1.00  0.00     0.123 A 
HETATM    7  O   LIG     1       0.072   1.382  -0.165  1.00  0.00    -0.303 OA
HETATM    8  C   LIG     1      -1.177   0.749  -0.184  1.00  0.00     0.123 A 
HETATM    9  C   LIG     1      -2.347   1.493  -0.366  1.00  0.00     0.027 A 
HETATM   10  C   LIG     1      -3.588   0.847  -0.383  1.00  0.00     0.002 A 
HETATM   11  C   LIG     1      -3.661  -0.541  -0.217  1.00  0.00     0.002 A 
HETATM   12  C   LIG     1      -2.492  -1.288  -0.034  1.00  0.00     0.027 A 
HETATM   13  C   LIG     1      -1.250  -0.646  -0.017  1.00  0.00     0.123 A 
HETATM   14  O   LIG     1      -0.072  -1.382   0.165  1.00  0.00    -0.303 OA
ENDROOT
TORSDOF 0
