REMARK  4 active torsions:
REMARK  status: ('A' for Active; 'I' for Inactive)
REMARK    1  A    between atoms: N_5  and  C_8 
REMARK    2  A    between atoms: C_8  and  C_9 
REMARK    3  A    between atoms: C_9  and  C_10 
REMARK    4  A    between atoms: C_10  and  N_11 
ROOT
HETATM    1  N   LIG     1      -1.834  -0.106  -0.101  1.00  0.00    -0.327 N 
HETATM    2  C   LIG     1      -2.311   1.251  -0.241  1.00  0.00     0.066 A 
HETATM    3  C   LIG     1      -1.632   2.185  -1.044  1.00  0.00     0.018 A 
HETATM    4  C   LIG     1      -2.194   3.442  -1.288  1.00  0.00     0.002 A 
HETATM    5  C   LIG     1      -3.440   3.772  -0.749  1.00  0.00     0.001 A 
HETATM    6  C   LIG     1      -4.121   2.853   0.055  1.00  0.00     0.008 A 
HETATM    7  C   LIG     1      -3.552   1.604   0.323  1.00  0.00     0.045 A 
HETATM    8  S   LIG     1      -4.352   0.475   1.467  1.00  0.00    -0.084 SA
HETATM    9  C   LIG     1      -4.084  -0.955   0.415  1.00  0.00     0.045 A 
HETATM   10  C   LIG     1      -2.816  -1.163  -0.157  1.00  0.00     0.067 A 
HETATM   11  C   LIG     1      -2.589  -2.321  -0.922  1.00  0.00     0.028 A 
HETATM   12  C   LIG     1      -3.614  -3.260  -1.102  1.00  0.00     0.070 A 
HETATM   13  C   LIG     1      -3.377  -4.443  -1.888  1.00  0.00     0.101 C 
HETATM   14  N   LIG     1      -3.187  -5.393  -2.521  1.00  0.00    -0.191 NA
HETATM   15  C   LIG     1      -4.876  -3.035  -0.539  1.00  0.00     0.011 A 
HETATM   16  C   LIG     1      -5.112  -1.881   0.213  1.00  0.00     0.009 A 
ENDROOT
BRANCH   1  17
HETATM   17  C   LIG     1      -0.404  -0.405   0.075  1.00  0.00     0.108 C 
BRANCH  17  18
HETATM   18  C   LIG     1       0.145   0.297   1.325  1.00  0.00     0.060 C 
BRANCH  18  19
HETATM   19  C   LIG     1       1.594  -0.095   1.641  1.00  0.00     0.252 C 
BRANCH  19  20
HETATM   20  N   LIG     1       2.513   0.429   0.603  1.00  0.00     0.137 N 
HETATM   21  C   LIG     1       2.909  -0.600  -0.397  1.00  0.00     0.253 C 
HETATM   22  C   LIG     1       4.336  -1.122  -0.181  1.00  0.00     0.068 C 
HETATM   23  C   LIG     1       5.372   0.023  -0.265  1.00  0.00     0.156 C 
HETATM   24  O   LIG     1       5.846   0.152  -1.581  1.00  0.00    -0.223 OA
HETATM   25  C   LIG     1       4.783   1.373   0.192  1.00  0.00     0.068 C 
HETATM   26  C   LIG     1       3.654   1.164   1.204  1.00  0.00     0.253 C 
ENDBRANCH  19  20
ENDBRANCH  18  19
ENDBRANCH  17  18
ENDBRANCH   1  17
TORSDOF 4
