REMARK  3 active torsions:
REMARK  status: ('A' for Active; 'I' for Inactive)
REMARK       I    between atoms: C_2  and  N_3 
REMARK    1  A    between atoms: N_3  and  C_4 
REMARK    2  A    between atoms: C_9  and  O_10 
REMARK    3  A    between atoms: O_10  and  C_11 
ROOT
HETATM    1  C   LIG     1      -1.296  -0.123   0.234  1.00  0.00     0.085 A 
HETATM    2  C   LIG     1      -0.483   0.609  -0.650  1.00  0.00     0.021 A 
HETATM    3  C   LIG     1       0.899   0.398  -0.679  1.00  0.00     0.026 A 
HETATM    4  C   LIG     1      -0.698  -1.046   1.104  1.00  0.00     0.021 A 
HETATM    5  C   LIG     1       0.683  -1.258   1.072  1.00  0.00     0.026 A 
HETATM    6  C   LIG     1       1.494  -0.532   0.193  1.00  0.00     0.103 A 
ENDROOT
BRANCH   1   7
HETATM    7  N   LIG     1      -2.716   0.092   0.302  1.00  0.00    -0.212 NA
HETATM    8  C   LIG     1      -3.539   0.411  -0.830  1.00  0.00     0.256 C 
HETATM    9  C   LIG     1      -4.962   0.816  -0.621  1.00  0.00     0.100 C 
HETATM   10  O   LIG     1      -3.087   0.319  -2.003  1.00  0.00    -0.270 OA
ENDBRANCH   1   7
BRANCH   6  11
HETATM   11  O   LIG     1       2.874  -0.788   0.191  1.00  0.00    -0.276 OA
BRANCH  11  12
HETATM   12  C   LIG     1       3.868   0.131  -0.167  1.00  0.00     0.277 C 
HETATM   13  C   LIG     1       5.259  -0.354  -0.397  1.00  0.00     0.107 C 
HETATM   14  O   LIG     1       3.630   1.369  -0.199  1.00  0.00    -0.264 OA
ENDBRANCH  11  12
ENDBRANCH   6  11
TORSDOF 3
