REMARK  0 active torsions:
REMARK  status: ('A' for Active; 'I' for Inactive)
ROOT
HETATM    1  N   LIG     1       2.072   3.031   0.146  1.00  0.00    -0.101 NA
HETATM    2  C   LIG     1       1.498   1.716   0.059  1.00  0.00     0.070 A 
HETATM    3  C   LIG     1       2.291   0.555  -0.071  1.00  0.00     0.013 A 
HETATM    4  C   LIG     1       1.671  -0.731  -0.049  1.00  0.00     0.001 A 
HETATM    5  C   LIG     1       2.505  -1.873  -0.186  1.00  0.00     0.000 A 
HETATM    6  C   LIG     1       3.885  -1.749  -0.335  1.00  0.00     0.000 A 
HETATM    7  C   LIG     1       4.474  -0.494  -0.370  1.00  0.00     0.000 A 
HETATM    8  C   LIG     1       3.690   0.648  -0.249  1.00  0.00     0.001 A 
HETATM    9  C   LIG     1       0.109   1.604   0.124  1.00  0.00     0.014 A 
HETATM   10  C   LIG     1      -0.547   0.357   0.121  1.00  0.00     0.001 A 
HETATM   11  C   LIG     1       0.248  -0.830   0.086  1.00  0.00     0.000 A 
HETATM   12  C   LIG     1      -0.406  -2.079   0.196  1.00  0.00     0.000 A 
HETATM   13  C   LIG     1      -1.786  -2.168   0.299  1.00  0.00     0.000 A 
HETATM   14  C   LIG     1      -2.578  -1.024   0.284  1.00  0.00     0.000 A 
HETATM   15  C   LIG     1      -1.977   0.258   0.185  1.00  0.00     0.000 A 
HETATM   16  C   LIG     1      -2.840   1.385   0.139  1.00  0.00     0.000 A 
HETATM   17  C   LIG     1      -4.226   1.235   0.219  1.00  0.00     0.000 A 
HETATM   18  C   LIG     1      -4.792  -0.030   0.339  1.00  0.00     0.000 A 
HETATM   19  C   LIG     1      -3.974  -1.156   0.367  1.00  0.00     0.000 A 
ENDROOT
TORSDOF 0
