REMARK  4 active torsions:
REMARK  status: ('A' for Active; 'I' for Inactive)
REMARK       I    between atoms: C_2  and  N_18 
REMARK    1  A    between atoms: C_2  and  O_3 
REMARK    2  A    between atoms: O_3  and  C_4 
REMARK    3  A    between atoms: C_6  and  C_7 
REMARK    4  A    between atoms: C_12  and  C_13 
ROOT
HETATM    1  C   LIG     1       1.430  -0.316  -0.141  1.00  0.00     0.104 A 
HETATM    2  C   LIG     1       0.903   0.961  -0.383  1.00  0.00     0.021 A 
HETATM    3  C   LIG     1      -0.482   1.210  -0.269  1.00  0.00    -0.021 A 
HETATM    4  C   LIG     1      -1.318   0.138   0.116  1.00  0.00    -0.008 A 
HETATM    5  C   LIG     1      -0.806  -1.151   0.391  1.00  0.00    -0.021 A 
HETATM    6  C   LIG     1       0.582  -1.348   0.258  1.00  0.00     0.021 A 
ENDROOT
BRANCH   1   7
HETATM    7  O   LIG     1       2.803  -0.588  -0.246  1.00  0.00    -0.258 OA
BRANCH   7   8
HETATM    8  C   LIG     1       3.687   0.036  -1.137  1.00  0.00     0.388 C 
HETATM    9  O   LIG     1       3.254   0.682  -2.130  1.00  0.00    -0.236 OA
HETATM   10  N   LIG     1       5.098  -0.104  -0.954  1.00  0.00    -0.210 NA
HETATM   11  C   LIG     1       5.648  -0.857   0.166  1.00  0.00     0.158 C 
ENDBRANCH   7   8
ENDBRANCH   1   7
BRANCH   5  12
HETATM   12  C   LIG     1      -1.702  -2.332   0.824  1.00  0.00     0.019 C 
HETATM   13  C   LIG     1      -1.575  -3.478  -0.204  1.00  0.00     0.004 C 
HETATM   14  C   LIG     1      -1.252  -2.837   2.212  1.00  0.00     0.004 C 
HETATM   15  C   LIG     1      -3.201  -1.959   0.925  1.00  0.00     0.004 C 
ENDBRANCH   5  12
BRANCH   3  16
HETATM   16  C   LIG     1      -1.101   2.600  -0.539  1.00  0.00     0.019 C 
HETATM   17  C   LIG     1      -2.135   2.491  -1.682  1.00  0.00     0.004 C 
HETATM   18  C   LIG     1      -1.801   3.110   0.740  1.00  0.00     0.004 C 
HETATM   19  C   LIG     1      -0.057   3.664  -0.957  1.00  0.00     0.004 C 
ENDBRANCH   3  16
TORSDOF 4
