REMARK  0 active torsions:
REMARK  status: ('A' for Active; 'I' for Inactive)
ROOT
HETATM    1  C   LIG     1      -0.682   0.557  -0.070  1.00  0.00     0.040 A 
HETATM    2  C   LIG     1       0.307   1.528  -0.194  1.00  0.00     0.003 A 
HETATM    3  C   LIG     1       1.648   1.099  -0.140  1.00  0.00     0.000 A 
HETATM    4  C   LIG     1       1.956  -0.272   0.034  1.00  0.00     0.002 A 
HETATM    5  C   LIG     1       0.926  -1.226   0.155  1.00  0.00     0.021 A 
HETATM    6  C   LIG     1      -0.387  -0.764   0.097  1.00  0.00     0.104 A 
HETATM    7  N   LIG     1      -1.525  -1.468   0.187  1.00  0.00    -0.148 NA
HETATM    8  N   LIG     1      -2.548  -0.626   0.080  1.00  0.00    -0.146 NA
HETATM    9  C   LIG     1      -2.058   0.628  -0.079  1.00  0.00     0.124 A 
ENDROOT
TORSDOF 0
