REMARK  3 active torsions:
REMARK  status: ('A' for Active; 'I' for Inactive)
REMARK    1  A    between atoms: C_2  and  C_3 
REMARK    2  A    between atoms: C_2  and  C_9 
REMARK    3  A    between atoms: C_9  and  C_10 
ROOT
HETATM    1  O   LIG     1       0.045  -1.466  -1.004  1.00  0.00    -0.215 OA
HETATM    2  C   LIG     1      -0.353  -0.191  -0.569  1.00  0.00     0.209 C 
ENDROOT
BRANCH   2   3
HETATM    3  C   LIG     1      -1.859  -0.155  -0.402  1.00  0.00     0.011 A 
HETATM    4  C   LIG     1      -2.620   0.835  -1.049  1.00  0.00    -0.002 A 
HETATM    5  C   LIG     1      -4.010   0.870  -0.896  1.00  0.00    -0.000 A 
HETATM    6  C   LIG     1      -4.652  -0.083  -0.101  1.00  0.00    -0.000 A 
HETATM    7  C   LIG     1      -3.905  -1.073   0.543  1.00  0.00    -0.000 A 
HETATM    8  C   LIG     1      -2.516  -1.112   0.394  1.00  0.00    -0.002 A 
ENDBRANCH   2   3
BRANCH   2   9
HETATM    9  C   LIG     1       0.359   0.146   0.765  1.00  0.00     0.209 C 
HETATM   10  O   LIG     1      -0.061   1.388   1.277  1.00  0.00    -0.215 OA
BRANCH   9  11
HETATM   11  C   LIG     1       1.870   0.121   0.619  1.00  0.00     0.011 A 
HETATM   12  C   LIG     1       2.533   1.035  -0.224  1.00  0.00    -0.002 A 
HETATM   13  C   LIG     1       3.925   0.999  -0.351  1.00  0.00    -0.000 A 
HETATM   14  C   LIG     1       4.669   0.055   0.360  1.00  0.00    -0.000 A 
HETATM   15  C   LIG     1       4.024  -0.855   1.199  1.00  0.00    -0.000 A 
HETATM   16  C   LIG     1       2.632  -0.824   1.330  1.00  0.00    -0.002 A 
ENDBRANCH   9  11
ENDBRANCH   2   9
TORSDOF 3
