REMARK  0 active torsions:
REMARK  status: ('A' for Active; 'I' for Inactive)
ROOT
HETATM    1  C   LIG     1       0.562  -0.721   0.000  1.00  0.00     0.119 A 
HETATM    2  C   LIG     1       0.661   0.635  -0.054  1.00  0.00     0.106 A 
HETATM    3  C   LIG     1      -0.464   1.457  -0.031  1.00  0.00     0.021 A 
HETATM    4  C   LIG     1      -1.724   0.834   0.050  1.00  0.00     0.002 A 
HETATM    5  C   LIG     1      -1.824  -0.576   0.106  1.00  0.00     0.002 A 
HETATM    6  C   LIG     1      -0.664  -1.374   0.081  1.00  0.00     0.026 A 
HETATM    7  N   LIG     1       1.952   1.001  -0.127  1.00  0.00    -0.217 NA
HETATM    8  C   LIG     1       2.590  -0.199  -0.113  1.00  0.00     0.225 A 
HETATM    9  O   LIG     1       1.763  -1.230  -0.037  1.00  0.00    -0.285 OA
ENDROOT
TORSDOF 0
