REMARK  3 active torsions:
REMARK  status: ('A' for Active; 'I' for Inactive)
REMARK    1  A    between atoms: C_5  and  N_6 
REMARK    2  A    between atoms: N_10  and  C_11 
REMARK    3  A    between atoms: C_13  and  C_14 
ROOT
HETATM    1  O   LIG     1      -0.274   1.596  -1.282  1.00  0.00    -0.264 OA
HETATM    2  C   LIG     1      -0.874   0.633  -0.729  1.00  0.00     0.292 A 
HETATM    3  C   LIG     1      -2.274   0.649  -0.641  1.00  0.00     0.134 A 
HETATM    4 CL   LIG     1      -3.155   1.998  -1.358  1.00  0.00    -0.076 Cl
HETATM    5  C   LIG     1      -2.936  -0.448  -0.057  1.00  0.00     0.112 A 
HETATM    6  C   LIG     1      -2.167  -1.530   0.376  1.00  0.00     0.140 A 
HETATM    7  N   LIG     1      -0.816  -1.488   0.276  1.00  0.00    -0.159 NA
HETATM    8  N   LIG     1      -0.171  -0.439  -0.241  1.00  0.00    -0.194 N 
ENDROOT
BRANCH   8   9
HETATM    9  C   LIG     1       1.267  -0.489  -0.296  1.00  0.00     0.086 A 
HETATM   10  C   LIG     1       1.909  -1.632  -0.797  1.00  0.00     0.019 A 
HETATM   11  C   LIG     1       3.302  -1.692  -0.851  1.00  0.00     0.002 A 
HETATM   12  C   LIG     1       4.071  -0.622  -0.386  1.00  0.00     0.004 A 
HETATM   13  C   LIG     1       3.450   0.513   0.162  1.00  0.00     0.073 A 
HETATM   14  C   LIG     1       2.045   0.579   0.187  1.00  0.00     0.023 A 
BRANCH  13  15
HETATM   15  C   LIG     1       4.275   1.685   0.631  1.00  0.00     0.419 C 
HETATM   16  F   LIG     1       4.449   2.568  -0.418  1.00  0.00    -0.166 F 
HETATM   17  F   LIG     1       5.516   1.265   1.077  1.00  0.00    -0.166 F 
HETATM   18  F   LIG     1       3.642   2.341   1.673  1.00  0.00    -0.166 F 
ENDBRANCH  13  15
ENDBRANCH   8   9
BRANCH   5  19
HETATM   19  N   LIG     1      -4.366  -0.513   0.086  1.00  0.00    -0.266 NA
HETATM   20  C   LIG     1      -5.154   0.581   0.646  1.00  0.00     0.152 C 
ENDBRANCH   5  19
TORSDOF 3
