REMARK  2 active torsions:
REMARK  status: ('A' for Active; 'I' for Inactive)
REMARK    1  A    between atoms: C_3  and  N_4 
REMARK       I    between atoms: N_4  and  C_5 
REMARK    2  A    between atoms: C_5  and  C_6 
ROOT
HETATM    1  O   LIG     1       0.504   1.877  -0.144  1.00  0.00    -0.285 OA
HETATM    2  C   LIG     1       0.053   0.717   0.058  1.00  0.00     0.214 A 
HETATM    3  C   LIG     1       0.992  -0.402   0.329  1.00  0.00     0.137 A 
HETATM    4  C   LIG     1       0.516  -1.621   0.656  1.00  0.00     0.117 A 
HETATM    5 CL   LIG     1       1.619  -2.957   0.988  1.00  0.00    -0.077 Cl
HETATM    6  C   LIG     1      -1.408   0.480   0.061  1.00  0.00     0.044 A 
HETATM    7  C   LIG     1      -2.313   1.513  -0.244  1.00  0.00     0.003 A 
HETATM    8  C   LIG     1      -3.688   1.271  -0.230  1.00  0.00     0.000 A 
HETATM    9  C   LIG     1      -4.174   0.001   0.088  1.00  0.00     0.000 A 
HETATM   10  C   LIG     1      -3.285  -1.032   0.394  1.00  0.00     0.003 A 
HETATM   11  C   LIG     1      -1.898  -0.801   0.382  1.00  0.00     0.043 A 
HETATM   12  C   LIG     1      -0.939  -1.881   0.704  1.00  0.00     0.208 A 
HETATM   13  O   LIG     1      -1.357  -3.029   1.017  1.00  0.00    -0.286 OA
ENDROOT
BRANCH   3  14
HETATM   14  N   LIG     1       2.410  -0.170   0.292  1.00  0.00    -0.205 NA
HETATM   15  C   LIG     1       3.069   0.432  -0.833  1.00  0.00     0.286 C 
HETATM   16  O   LIG     1       2.430   0.665  -1.895  1.00  0.00    -0.267 OA
BRANCH  15  17
HETATM   17  C   LIG     1       4.532   0.749  -0.773  1.00  0.00     0.239 C 
HETATM   18 CL   LIG     1       4.874   1.822   0.606  1.00  0.00    -0.087 Cl
HETATM   19 CL   LIG     1       5.475  -0.753  -0.609  1.00  0.00    -0.087 Cl
ENDBRANCH  15  17
ENDBRANCH   3  14
TORSDOF 2
