REMARK  2 active torsions:
REMARK  status: ('A' for Active; 'I' for Inactive)
REMARK    1  A    between atoms: C_6  and  O_8 
REMARK    2  A    between atoms: O_8  and  C_9 
ROOT
HETATM    1  O   LIG     1       0.248  -1.077   0.974  1.00  0.00    -0.307 OA
ENDROOT
BRANCH   1   2
HETATM    2  C   LIG     1       1.200  -0.139   0.546  1.00  0.00     0.100 A 
HETATM    3  C   LIG     1       0.915   1.237   0.489  1.00  0.00     0.025 A 
HETATM    4  C   LIG     1       1.896   2.141   0.072  1.00  0.00     0.002 A 
HETATM    5  C   LIG     1       3.169   1.684  -0.278  1.00  0.00    -0.004 A 
HETATM    6  C   LIG     1       3.471   0.315  -0.206  1.00  0.00    -0.020 A 
HETATM    7  C   LIG     1       4.836  -0.190  -0.570  1.00  0.00     0.031 C 
HETATM    8  C   LIG     1       2.483  -0.589   0.213  1.00  0.00     0.020 A 
ENDBRANCH   1   2
BRANCH   1   9
HETATM    9  C   LIG     1      -1.139  -0.967   0.794  1.00  0.00     0.100 A 
HETATM   10  C   LIG     1      -1.987  -1.561   1.735  1.00  0.00     0.025 A 
HETATM   11  C   LIG     1      -3.374  -1.493   1.579  1.00  0.00     0.002 A 
HETATM   12  C   LIG     1      -3.925  -0.836   0.476  1.00  0.00    -0.004 A 
HETATM   13  C   LIG     1      -3.089  -0.237  -0.478  1.00  0.00    -0.020 A 
HETATM   14  C   LIG     1      -3.677   0.421  -1.691  1.00  0.00     0.031 C 
HETATM   15  C   LIG     1      -1.696  -0.324  -0.328  1.00  0.00     0.020 A 
ENDBRANCH   1   9
TORSDOF 2
