REMARK  0 active torsions:
REMARK  status: ('A' for Active; 'I' for Inactive)
ROOT
HETATM    1  C   LIG     1      -0.724   1.004  -0.344  1.00  0.00     0.000 C 
HETATM    2  C   LIG     1      -1.177  -0.197   0.483  1.00  0.00     0.000 C 
HETATM    3  C   LIG     1       0.030  -1.119   0.630  1.00  0.00     0.000 C 
HETATM    4  C   LIG     1       1.097  -0.581  -0.309  1.00  0.00     0.000 C 
HETATM    5  C   LIG     1       0.787   0.895  -0.466  1.00  0.00     0.000 C 
ENDROOT
TORSDOF 0
