REMARK  1 active torsions:
REMARK  status: ('A' for Active; 'I' for Inactive)
REMARK       I    between atoms: C_2  and  N_3 
REMARK       I    between atoms: C_2  and  N_14 
REMARK    1  A    between atoms: N_3  and  C_4 
ROOT
HETATM    1  C   LIG     1       0.298   1.504  -0.146  1.00  0.00     0.108 C 
HETATM    2  C   LIG     1      -0.863   1.449   0.887  1.00  0.00     0.023 C 
HETATM    3  C   LIG     1      -1.473   0.009   0.809  1.00  0.00     0.002 C 
HETATM    4  C   LIG     1      -2.226  -0.842   1.800  1.00  0.00     0.000 C 
HETATM    5  C   LIG     1      -2.877  -1.891   0.834  1.00  0.00     0.000 C 
HETATM    6  C   LIG     1      -2.785  -1.302  -0.615  1.00  0.00     0.000 C 
HETATM    7  C   LIG     1      -2.489   0.140  -0.292  1.00  0.00     0.000 C 
HETATM    8  C   LIG     1      -1.951   1.342  -1.085  1.00  0.00     0.002 C 
HETATM    9  C   LIG     1      -0.453   1.193  -1.478  1.00  0.00     0.025 C 
HETATM   10  C   LIG     1      -1.852   2.309   0.102  1.00  0.00     0.002 C 
ENDROOT
BRANCH   1  11
HETATM   11  N   LIG     1       1.390   0.564   0.140  1.00  0.00    -0.221 NA
HETATM   12  C   LIG     1       2.519   0.425  -0.740  1.00  0.00     0.342 C 
HETATM   13  O   LIG     1       2.631   1.201  -1.730  1.00  0.00    -0.245 OA
HETATM   14  N   LIG     1       3.523  -0.587  -0.512  1.00  0.00    -0.297 N 
HETATM   15  C   LIG     1       4.696  -0.638  -1.391  1.00  0.00     0.130 C 
HETATM   16  C   LIG     1       3.364  -1.575   0.559  1.00  0.00     0.130 C 
ENDBRANCH   1  11
TORSDOF 1
