REMARK  0 active torsions:
REMARK  status: ('A' for Active; 'I' for Inactive)
ROOT
HETATM    1  C   LIG     1       1.384  -0.395  -0.106  1.00  0.00     0.122 A 
HETATM    2  C   LIG     1       0.680   0.785   0.133  1.00  0.00     0.024 A 
HETATM    3  C   LIG     1      -0.713   0.750   0.158  1.00  0.00     0.024 A 
HETATM    4  C   LIG     1      -1.365  -0.464  -0.056  1.00  0.00     0.122 A 
HETATM    5  N   LIG     1      -0.633  -1.586  -0.285  1.00  0.00    -0.146 NA
HETATM    6  N   LIG     1       0.701  -1.552  -0.309  1.00  0.00    -0.146 NA
ENDROOT
TORSDOF 0
