REMARK  0 active torsions:
REMARK  status: ('A' for Active; 'I' for Inactive)
ROOT
HETATM    1  C   LIG     1      -0.857  -0.942  -0.014  1.00  0.00     0.102 A 
HETATM    2  C   LIG     1      -1.056   0.435   0.084  1.00  0.00     0.041 A 
HETATM    3  C   LIG     1       0.061   1.270   0.077  1.00  0.00     0.102 A 
HETATM    4  N   LIG     1       1.306   0.734  -0.023  1.00  0.00    -0.223 NA
HETATM    5  C   LIG     1       1.481  -0.610  -0.118  1.00  0.00     0.199 A 
HETATM    6  N   LIG     1       0.404  -1.439  -0.113  1.00  0.00    -0.223 NA
ENDROOT
TORSDOF 0
