REMARK  1 active torsions:
REMARK  status: ('A' for Active; 'I' for Inactive)
REMARK    1  A    between atoms: C_5  and  C_6 
ROOT
HETATM    1 CL   LIG     1      -0.123   2.620  -3.947  1.00  0.00    -0.082 Cl
HETATM    2  C   LIG     1       0.521   1.698  -2.601  1.00  0.00     0.058 A 
HETATM    3  C   LIG     1      -0.289   0.780  -1.931  1.00  0.00     0.014 A 
HETATM    4  C   LIG     1       0.209   0.027  -0.850  1.00  0.00     0.034 A 
HETATM    5  C   LIG     1      -0.726  -0.915  -0.156  1.00  0.00     0.079 C 
HETATM    6  N   LIG     1      -0.360  -2.101   0.246  1.00  0.00    -0.262 NA
HETATM    7  C   LIG     1       0.971  -2.680   0.107  1.00  0.00     0.191 C 
HETATM    8  C   LIG     1       1.934  -1.847   0.877  1.00  0.00     0.172 A 
HETATM    9  N   LIG     1       2.640  -2.277   1.939  1.00  0.00    -0.131 NA
HETATM   10  N   LIG     1       3.308  -1.229   2.401  1.00  0.00    -0.133 NA
HETATM   11  C   LIG     1       2.988  -0.179   1.619  1.00  0.00     0.147 A 
HETATM   12  C   LIG     1       3.511   1.203   1.858  1.00  0.00     0.074 C 
HETATM   13  N   LIG     1       2.128  -0.540   0.641  1.00  0.00    -0.279 N 
HETATM   14  C   LIG     1       1.556   0.227  -0.436  1.00  0.00     0.068 A 
HETATM   15  C   LIG     1       2.362   1.139  -1.141  1.00  0.00     0.018 A 
HETATM   16  C   LIG     1       1.847   1.873  -2.208  1.00  0.00     0.013 A 
ENDROOT
BRANCH   5  17
HETATM   17  C   LIG     1      -2.126  -0.493   0.098  1.00  0.00     0.028 A 
HETATM   18  C   LIG     1      -2.367   0.783   0.639  1.00  0.00     0.002 A 
HETATM   19  C   LIG     1      -3.671   1.207   0.904  1.00  0.00     0.000 A 
HETATM   20  C   LIG     1      -4.750   0.366   0.631  1.00  0.00     0.001 A 
HETATM   21  C   LIG     1      -4.528  -0.901   0.087  1.00  0.00     0.011 A 
HETATM   22  C   LIG     1      -3.225  -1.339  -0.183  1.00  0.00     0.059 A 
HETATM   23 CL   LIG     1      -3.023  -2.920  -0.931  1.00  0.00    -0.082 Cl
ENDBRANCH   5  17
TORSDOF 1
