REMARK  0 active torsions:
REMARK  status: ('A' for Active; 'I' for Inactive)
ROOT
HETATM    1  C   LIG     1      -1.668  -0.239  -0.163  1.00  0.00     0.000 C 
HETATM    2  C   LIG     1      -0.668  -1.321  -0.619  1.00  0.00     0.000 C 
HETATM    3  C   LIG     1       0.533  -1.528   0.324  1.00  0.00     0.000 C 
HETATM    4  C   LIG     1       1.563  -0.368   0.379  1.00  0.00     0.000 C 
HETATM    5  C   LIG     1       1.260   0.849  -0.516  1.00  0.00     0.000 C 
HETATM    6  C   LIG     1       0.046   1.691  -0.071  1.00  0.00     0.000 C 
HETATM    7  C   LIG     1      -1.071   0.920   0.651  1.00  0.00     0.000 C 
ENDROOT
TORSDOF 0
