REMARK  0 active torsions:
REMARK  status: ('A' for Active; 'I' for Inactive)
ROOT
HETATM    1  C   LIG     1       1.055   1.581   0.107  1.00  0.00     0.000 C 
HETATM    2  C   LIG     1      -0.303   1.571  -0.621  1.00  0.00     0.000 C 
HETATM    3  C   LIG     1      -1.478   0.989   0.194  1.00  0.00     0.000 C 
HETATM    4  C   LIG     1      -1.875  -0.436  -0.232  1.00  0.00     0.000 C 
HETATM    5  C   LIG     1      -0.888  -1.542   0.182  1.00  0.00     0.000 C 
HETATM    6  C   LIG     1       0.421  -1.537  -0.635  1.00  0.00     0.000 C 
HETATM    7  C   LIG     1       1.646  -0.952   0.095  1.00  0.00     0.000 C 
HETATM    8  C   LIG     1       1.417   0.326   0.919  1.00  0.00     0.000 C 
ENDROOT
TORSDOF 0
