REMARK  3 active torsions:
REMARK  status: ('A' for Active; 'I' for Inactive)
REMARK    1  A    between atoms: N_3  and  S_4 
REMARK    2  A    between atoms: S_4  and  C_5 
REMARK    3  A    between atoms: C_5  and  C_8 
ROOT
HETATM    1  O   LIG     1       0.535   2.235  -0.850  1.00  0.00    -0.271 OA
HETATM    2  C   LIG     1       0.155   1.076  -0.539  1.00  0.00     0.249 C 
HETATM    3  N   LIG     1       1.006  -0.065  -0.533  1.00  0.00    -0.220 N 
HETATM    4  C   LIG     1       0.146  -1.183  -0.339  1.00  0.00     0.249 C 
HETATM    5  C   LIG     1      -1.284  -0.766  -0.396  1.00  0.00     0.094 C 
HETATM    6  C   LIG     1      -2.334  -1.426   0.493  1.00  0.00     0.035 C 
HETATM    7  C   LIG     1      -3.624  -0.612   0.424  1.00  0.00    -0.030 C 
HETATM    8  C   LIG     1      -3.676   0.666  -0.045  1.00  0.00    -0.030 C 
HETATM    9  C   LIG     1      -2.451   1.411  -0.571  1.00  0.00     0.035 C 
HETATM   10  C   LIG     1      -1.200   0.719  -0.037  1.00  0.00     0.094 C 
HETATM   11  O   LIG     1       0.549  -2.376  -0.303  1.00  0.00    -0.271 OA
ENDROOT
BRANCH   3  12
HETATM   12  S   LIG     1       2.684  -0.123  -1.098  1.00  0.00     0.004 SA
BRANCH  12  13
HETATM   13  C   LIG     1       3.446   0.056   0.568  1.00  0.00     0.218 C 
HETATM   14 CL   LIG     1       2.911  -1.275   1.636  1.00  0.00    -0.084 Cl
HETATM   15 CL   LIG     1       2.924   1.593   1.319  1.00  0.00    -0.084 Cl
BRANCH  13  16
HETATM   16  C   LIG     1       4.985   0.038   0.465  1.00  0.00     0.198 C 
HETATM   17 CL   LIG     1       5.593  -1.499  -0.218  1.00  0.00    -0.094 Cl
HETATM   18 CL   LIG     1       5.607   1.383  -0.536  1.00  0.00    -0.094 Cl
ENDBRANCH  13  16
ENDBRANCH  12  13
ENDBRANCH   3  12
TORSDOF 3
