REMARK  1 active torsions:
REMARK  status: ('A' for Active; 'I' for Inactive)
REMARK    1  A    between atoms: C_4  and  C_5 
ROOT
HETATM    1 CL   LIG     1       3.873   2.271   0.884  1.00  0.00    -0.082 Cl
HETATM    2  C   LIG     1       2.895   0.950   0.257  1.00  0.00     0.068 A 
HETATM    3  C   LIG     1       1.507   0.994   0.428  1.00  0.00     0.012 A 
HETATM    4  C   LIG     1       0.691  -0.045  -0.055  1.00  0.00     0.001 A 
HETATM    5  C   LIG     1       1.293  -1.132  -0.715  1.00  0.00     0.001 A 
HETATM    6  C   LIG     1       2.679  -1.176  -0.887  1.00  0.00     0.012 A 
HETATM    7  C   LIG     1       3.484  -0.140  -0.404  1.00  0.00     0.068 A 
HETATM    8 CL   LIG     1       5.224  -0.233  -0.641  1.00  0.00    -0.082 Cl
ENDROOT
BRANCH   4   9
HETATM    9  C   LIG     1      -0.782   0.004   0.128  1.00  0.00     0.000 A 
HETATM   10  C   LIG     1      -1.485   1.213  -0.038  1.00  0.00     0.000 A 
HETATM   11  C   LIG     1      -2.872   1.256   0.134  1.00  0.00     0.000 A 
HETATM   12  C   LIG     1      -3.572   0.096   0.474  1.00  0.00     0.000 A 
HETATM   13  C   LIG     1      -2.887  -1.109   0.643  1.00  0.00     0.000 A 
HETATM   14  C   LIG     1      -1.500  -1.158   0.470  1.00  0.00     0.000 A 
ENDBRANCH   4   9
TORSDOF 1
