REMARK  1 active torsions:
REMARK  status: ('A' for Active; 'I' for Inactive)
REMARK    1  A    between atoms: O_2  and  C_3 
ROOT
HETATM    1  C   LIG     1      -0.540   0.679  -0.383  1.00  0.00     0.140 A 
HETATM    2  C   LIG     1       0.865   0.648  -0.251  1.00  0.00     0.127 A 
HETATM    3  O   LIG     1       1.592   1.670  -0.699  1.00  0.00    -0.271 OA
HETATM    4  C   LIG     1       2.918   1.704  -0.606  1.00  0.00     0.300 A 
HETATM    5  O   LIG     1       3.547   2.700  -1.050  1.00  0.00    -0.259 OA
HETATM    6  C   LIG     1       1.510  -0.468   0.358  1.00  0.00     0.025 A 
HETATM    7  C   LIG     1       2.904  -0.453   0.465  1.00  0.00     0.007 A 
HETATM    8  C   LIG     1       3.616   0.642  -0.021  1.00  0.00     0.069 A 
HETATM    9  C   LIG     1       0.754  -1.556   0.836  1.00  0.00     0.004 A 
HETATM   10  C   LIG     1      -0.628  -1.494   0.692  1.00  0.00     0.027 A 
HETATM   11  C   LIG     1      -1.258  -0.426   0.108  1.00  0.00     0.124 A 
HETATM   12  O   LIG     1      -2.554  -0.624   0.099  1.00  0.00    -0.303 OA
HETATM   13  C   LIG     1      -2.793  -1.794   0.662  1.00  0.00     0.123 A 
HETATM   14  C   LIG     1      -1.603  -2.391   1.057  1.00  0.00     0.029 A 
ENDROOT
BRANCH   1  15
HETATM   15  O   LIG     1      -1.145   1.793  -0.987  1.00  0.00    -0.324 OA
HETATM   16  C   LIG     1      -2.546   1.951  -1.181  1.00  0.00     0.182 C 
ENDBRANCH   1  15
TORSDOF 1
