REMARK  7 active torsions:
REMARK  status: ('A' for Active; 'I' for Inactive)
REMARK    1  A    between atoms: C_3  and  C_4 
REMARK    2  A    between atoms: C_3  and  O_10 
REMARK    3  A    between atoms: O_10  and  C_11 
REMARK    4  A    between atoms: C_19  and  C_20 
REMARK    5  A    between atoms: C_20  and  O_21 
REMARK    6  A    between atoms: O_21  and  C_22 
REMARK    7  A    between atoms: C_30  and  C_31 
ROOT
HETATM    1  N   LIG     1       5.697  -2.567  -0.200  1.00  0.00    -0.193 NA
HETATM    2  C   LIG     1       4.972  -1.702   0.071  1.00  0.00     0.108 C 
HETATM    3  C   LIG     1       4.043  -0.599   0.404  1.00  0.00     0.230 C 
ENDROOT
BRANCH   3   4
HETATM    4  C   LIG     1       4.848   0.610   0.800  1.00  0.00     0.019 A 
HETATM    5  C   LIG     1       4.772   1.122   2.106  1.00  0.00    -0.001 A 
HETATM    6  C   LIG     1       5.545   2.226   2.476  1.00  0.00    -0.000 A 
HETATM    7  C   LIG     1       6.400   2.826   1.546  1.00  0.00    -0.000 A 
HETATM    8  C   LIG     1       6.479   2.327   0.241  1.00  0.00    -0.000 A 
HETATM    9  C   LIG     1       5.707   1.226  -0.128  1.00  0.00    -0.001 A 
ENDBRANCH   3   4
BRANCH   3  10
HETATM   10  O   LIG     1       3.244  -0.263  -0.721  1.00  0.00    -0.312 OA
BRANCH  10  11
HETATM   11  C   LIG     1       2.256  -1.245  -1.006  1.00  0.00     0.271 C 
HETATM   12  C   LIG     1       2.462  -1.774  -2.454  1.00  0.00     0.241 C 
HETATM   13  C   LIG     1       1.116  -2.179  -3.105  1.00  0.00     0.220 C 
HETATM   14  O   LIG     1       3.131  -0.837  -3.261  1.00  0.00    -0.215 OA
HETATM   15  C   LIG     1       0.120  -2.677  -2.032  1.00  0.00     0.215 C 
HETATM   16  O   LIG     1       1.317  -3.154  -4.097  1.00  0.00    -0.218 OA
HETATM   17  C   LIG     1      -0.049  -1.616  -0.889  1.00  0.00     0.180 C 
HETATM   18  O   LIG     1      -1.105  -3.079  -2.597  1.00  0.00    -0.218 OA
HETATM   19  O   LIG     1       0.983  -0.639  -0.899  1.00  0.00    -0.326 OA
BRANCH  17  20
HETATM   20  C   LIG     1      -1.398  -0.888  -0.939  1.00  0.00     0.177 C 
BRANCH  20  21
HETATM   21  O   LIG     1      -1.431   0.111   0.059  1.00  0.00    -0.326 OA
BRANCH  21  22
HETATM   22  C   LIG     1      -2.749   0.594   0.227  1.00  0.00     0.270 C 
HETATM   23  C   LIG     1      -2.702   1.970   0.936  1.00  0.00     0.241 C 
HETATM   24  C   LIG     1      -4.013   2.240   1.717  1.00  0.00     0.220 C 
HETATM   25  O   LIG     1      -1.616   2.014   1.826  1.00  0.00    -0.215 OA
HETATM   26  C   LIG     1      -5.187   1.507   1.060  1.00  0.00     0.215 C 
HETATM   27  O   LIG     1      -4.288   3.616   1.761  1.00  0.00    -0.218 OA
HETATM   28  C   LIG     1      -4.880  -0.034   0.979  1.00  0.00     0.184 C 
HETATM   29  O   LIG     1      -6.373   1.787   1.765  1.00  0.00    -0.218 OA
HETATM   30  O   LIG     1      -3.485  -0.319   1.021  1.00  0.00    -0.326 OA
BRANCH  28  31
HETATM   31  C   LIG     1      -5.539  -0.844   2.113  1.00  0.00     0.214 C 
HETATM   32  O   LIG     1      -6.929  -0.882   1.951  1.00  0.00    -0.218 OA
ENDBRANCH  28  31
ENDBRANCH  21  22
ENDBRANCH  20  21
ENDBRANCH  17  20
ENDBRANCH  10  11
ENDBRANCH   3  10
TORSDOF 7
