REMARK  3 active torsions:
REMARK  status: ('A' for Active; 'I' for Inactive)
REMARK    1  A    between atoms: C_2  and  C_7 
REMARK    2  A    between atoms: C_2  and  C_3 
REMARK    3  A    between atoms: C_3  and  N_5 
ROOT
HETATM    1  C   LIG     1       1.081  -0.532  -0.353  1.00  0.00     0.010 A 
HETATM    2  C   LIG     1       1.626   0.097   0.785  1.00  0.00    -0.002 A 
HETATM    3  C   LIG     1       2.860   0.750   0.711  1.00  0.00    -0.000 A 
HETATM    4  C   LIG     1       3.566   0.783  -0.493  1.00  0.00    -0.000 A 
HETATM    5  C   LIG     1       3.039   0.162  -1.627  1.00  0.00    -0.000 A 
HETATM    6  C   LIG     1       1.805  -0.492  -1.560  1.00  0.00    -0.002 A 
ENDROOT
BRANCH   1   7
HETATM    7  C   LIG     1      -0.263  -1.244  -0.301  1.00  0.00     0.208 C 
HETATM    8  O   LIG     1      -0.280  -2.230   0.704  1.00  0.00    -0.216 OA
BRANCH   7   9
HETATM    9  C   LIG     1      -1.453  -0.254  -0.184  1.00  0.00     0.291 C 
HETATM   10  C   LIG     1      -2.792  -0.995  -0.356  1.00  0.00     0.041 C 
BRANCH   9  11
HETATM   11  N   LIG     1      -1.404   0.477   1.099  1.00  0.00     0.342 N 
HETATM   12  C   LIG     1      -1.982   1.819   0.990  1.00  0.00     0.328 C 
ENDBRANCH   9  11
ENDBRANCH   7   9
ENDBRANCH   1   7
TORSDOF 3
