REMARK  5 active torsions:
REMARK  status: ('A' for Active; 'I' for Inactive)
REMARK    1  A    between atoms: C_2  and  S_3 
REMARK    2  A    between atoms: S_3  and  C_4 
REMARK    3  A    between atoms: C_4  and  C_5 
REMARK    4  A    between atoms: C_10  and  O_11 
REMARK    5  A    between atoms: O_11  and  C_12 
REMARK       I    between atoms: C_12  and  N_13 
ROOT
HETATM    1  C   LIG     1       0.671  -1.469  -0.197  1.00  0.00     0.012 A 
HETATM    2  C   LIG     1       1.105  -2.805  -0.220  1.00  0.00    -0.001 A 
HETATM    3  C   LIG     1       0.202  -3.848  -0.005  1.00  0.00    -0.000 A 
HETATM    4  C   LIG     1      -1.142  -3.568   0.241  1.00  0.00     0.002 A 
HETATM    5  C   LIG     1      -1.589  -2.245   0.268  1.00  0.00     0.025 A 
HETATM    6  C   LIG     1      -0.693  -1.183   0.035  1.00  0.00     0.102 A 
ENDROOT
BRANCH   6   7
HETATM    7  O   LIG     1      -1.119   0.154   0.082  1.00  0.00    -0.259 OA
BRANCH   7   8
HETATM    8  C   LIG     1      -2.391   0.614  -0.283  1.00  0.00     0.388 C 
HETATM    9  N   LIG     1      -2.780   1.942   0.080  1.00  0.00    -0.210 NA
HETATM   10  C   LIG     1      -4.080   2.491  -0.284  1.00  0.00     0.158 C 
HETATM   11  O   LIG     1      -3.168  -0.109  -0.965  1.00  0.00    -0.236 OA
ENDBRANCH   7   8
ENDBRANCH   6   7
BRANCH   1  12
HETATM   12  C   LIG     1       1.674  -0.370  -0.438  1.00  0.00     0.086 C 
BRANCH  12  13
HETATM   13  S   LIG     1       2.782  -0.223   1.007  1.00  0.00    -0.135 SA
BRANCH  13  14
HETATM   14  C   LIG     1       3.743   1.196   0.370  1.00  0.00     0.058 C 
HETATM   15  C   LIG     1       3.084   2.511   0.764  1.00  0.00     0.013 C 
ENDBRANCH  13  14
ENDBRANCH  12  13
ENDBRANCH   1  12
TORSDOF 5
