REMARK  4 active torsions:
REMARK  status: ('A' for Active; 'I' for Inactive)
REMARK    1  A    between atoms: C_2  and  C_7 
REMARK    2  A    between atoms: C_2  and  C_3 
REMARK    3  A    between atoms: C_3  and  C_4 
REMARK    4  A    between atoms: C_7  and  C_8 
ROOT
HETATM    1  O   LIG     1       0.078  -1.192   1.893  1.00  0.00    -0.296 OA
HETATM    2  C   LIG     1       0.314  -0.621   0.839  1.00  0.00     0.158 C 
ENDROOT
BRANCH   2   3
HETATM    3  C   LIG     1      -0.497   0.591   0.455  1.00  0.00     0.065 C 
BRANCH   3   4
HETATM    4  C   LIG     1      -1.965   0.228   0.149  1.00  0.00     0.007 C 
HETATM    5  C   LIG     1      -2.799   1.502  -0.030  1.00  0.00     0.000 C 
HETATM    6  C   LIG     1      -2.075  -0.653  -1.104  1.00  0.00     0.000 C 
ENDBRANCH   3   4
ENDBRANCH   2   3
BRANCH   2   7
HETATM    7  C   LIG     1       1.409  -1.138  -0.054  1.00  0.00     0.129 C 
BRANCH   7   8
HETATM    8  C   LIG     1       2.755  -0.872   0.562  1.00  0.00     0.158 C 
HETATM    9  C   LIG     1       3.648   0.215   0.043  1.00  0.00     0.073 C 
HETATM   10  O   LIG     1       3.127  -1.546   1.510  1.00  0.00    -0.296 OA
ENDBRANCH   7   8
ENDBRANCH   2   7
TORSDOF 4
