REMARK  1 active torsions:
REMARK  status: ('A' for Active; 'I' for Inactive)
REMARK    1  A    between atoms: N_3  and  C_4 
ROOT
HETATM    1  O   LIG     1       0.406  -1.959  -0.948  1.00  0.00    -0.265 OA
HETATM    2  C   LIG     1       0.992  -1.002  -0.371  1.00  0.00     0.288 A 
HETATM    3  N   LIG     1       0.274   0.043   0.152  1.00  0.00    -0.194 N 
HETATM    4  N   LIG     1       0.904   1.079   0.714  1.00  0.00    -0.160 NA
HETATM    5  C   LIG     1       2.255   1.137   0.814  1.00  0.00     0.135 A 
HETATM    6  C   LIG     1       3.035   0.092   0.319  1.00  0.00     0.102 A 
HETATM    7  N   LIG     1       4.462   0.159   0.434  1.00  0.00    -0.098 NA
HETATM    8  C   LIG     1       2.391  -0.999  -0.288  1.00  0.00     0.107 A 
HETATM    9 BR   LIG     1       3.383  -2.476  -1.018  1.00  0.00    -0.043 Br
ENDROOT
BRANCH   3  10
HETATM   10  C   LIG     1      -1.165   0.076   0.099  1.00  0.00     0.086 A 
HETATM   11  C   LIG     1      -1.929  -1.023   0.534  1.00  0.00     0.019 A 
HETATM   12  C   LIG     1      -3.326  -0.970   0.499  1.00  0.00     0.002 A 
HETATM   13  C   LIG     1      -3.972   0.182   0.041  1.00  0.00     0.000 A 
HETATM   14  C   LIG     1      -3.222   1.284  -0.377  1.00  0.00     0.002 A 
HETATM   15  C   LIG     1      -1.825   1.235  -0.343  1.00  0.00     0.019 A 
ENDBRANCH   3  10
TORSDOF 1
