REMARK  1 active torsions:
REMARK  status: ('A' for Active; 'I' for Inactive)
REMARK    1  A    between atoms: O_2  and  C_3 
ROOT
HETATM    1  C   LIG     1      -0.875   0.034   0.136  1.00  0.00     0.201 A 
HETATM    2  C   LIG     1       0.521   0.054   0.125  1.00  0.00     0.158 A 
HETATM    3  N   LIG     1       1.219   0.873  -0.707  1.00  0.00    -0.236 NA
HETATM    4  C   LIG     1       2.579   0.876  -0.702  1.00  0.00     0.120 A 
HETATM    5  C   LIG     1       3.269   0.028   0.171  1.00  0.00     0.121 A 
HETATM    6  N   LIG     1       2.573  -0.791   1.004  1.00  0.00    -0.222 NA
HETATM    7  C   LIG     1       1.214  -0.798   1.001  1.00  0.00     0.185 A 
HETATM    8  N   LIG     1       0.526  -1.618   1.835  1.00  0.00    -0.203 NA
HETATM    9  C   LIG     1      -0.833  -1.625   1.833  1.00  0.00     0.202 A 
HETATM   10  N   LIG     1      -1.521  -0.807   0.991  1.00  0.00    -0.199 NA
ENDROOT
BRANCH   1  11
HETATM   11  O   LIG     1      -1.593   0.871  -0.725  1.00  0.00    -0.311 OA
HETATM   12  C   LIG     1      -3.015   0.898  -0.763  1.00  0.00     0.183 C 
ENDBRANCH   1  11
TORSDOF 1
