REMARK  2 active torsions:
REMARK  status: ('A' for Active; 'I' for Inactive)
REMARK       I    between atoms: N_6  and  C_7 
REMARK       I    between atoms: C_7  and  N_8 
REMARK    1  A    between atoms: N_8  and  C_9 
REMARK    2  A    between atoms: C_9  and  C_10 
ROOT
HETATM    1  O   LIG     1       2.061  -2.287   0.545  1.00  0.00    -0.245 OA
HETATM    2  C   LIG     1       2.616  -1.197   0.247  1.00  0.00     0.349 A 
HETATM    3  N   LIG     1       3.986  -1.091  -0.059  1.00  0.00    -0.216 NA
HETATM    4  C   LIG     1       4.298   0.318  -0.253  1.00  0.00     0.155 A 
HETATM    5  C   LIG     1       2.969   1.081  -0.024  1.00  0.00     0.142 A 
HETATM    6  N   LIG     1       1.963   0.059   0.252  1.00  0.00    -0.230 N 
HETATM    7  C   LIG     1       0.585   0.331   0.552  1.00  0.00     0.349 C 
HETATM    8  N   LIG     1      -0.417  -0.687   0.403  1.00  0.00    -0.219 NA
HETATM    9  O   LIG     1       0.253   1.492   0.917  1.00  0.00    -0.245 OA
ENDROOT
BRANCH   8  10
HETATM   10  C   LIG     1      -1.809  -0.496   0.814  1.00  0.00     0.131 C 
BRANCH  10  11
HETATM   11  C   LIG     1      -2.721  -0.294  -0.410  1.00  0.00     0.025 C 
HETATM   12  C   LIG     1      -4.192  -0.277   0.021  1.00  0.00     0.002 C 
HETATM   13  C   LIG     1      -2.376   1.000  -1.160  1.00  0.00     0.002 C 
ENDBRANCH  10  11
ENDBRANCH   8  10
TORSDOF 2
