REMARK  3 active torsions:
REMARK  status: ('A' for Active; 'I' for Inactive)
REMARK    1  A    between atoms: C_2  and  C_3 
REMARK    2  A    between atoms: C_3  and  C_4 
REMARK    3  A    between atoms: C_4  and  C_5 
ROOT
HETATM    1  C   LIG     1       0.207  -0.054  -0.916  1.00  0.00     0.003 C 
ENDROOT
BRANCH   1   2
HETATM    2  C   LIG     1       1.532   0.457  -0.299  1.00  0.00     0.036 C 
BRANCH   2   3
HETATM    3  C   LIG     1       2.414  -0.684   0.224  1.00  0.00     0.182 C 
HETATM    4  O   LIG     1       3.581  -0.167   0.803  1.00  0.00    -0.221 OA
ENDBRANCH   2   3
ENDBRANCH   1   2
BRANCH   1   5
HETATM    5  C   LIG     1      -1.062   0.071  -0.017  1.00  0.00     0.000 C 
HETATM    6  C   LIG     1      -0.865  -0.636   1.339  1.00  0.00     0.000 C 
HETATM    7  C   LIG     1      -2.242  -0.603  -0.750  1.00  0.00     0.000 C 
HETATM    8  C   LIG     1      -1.427   1.554   0.221  1.00  0.00     0.000 C 
ENDBRANCH   1   5
TORSDOF 3
