REMARK  3 active torsions:
REMARK  status: ('A' for Active; 'I' for Inactive)
REMARK    1  A    between atoms: C_2  and  C_5 
REMARK    2  A    between atoms: C_5  and  O_6 
REMARK    3  A    between atoms: O_6  and  C_7 
ROOT
HETATM    1  C   LIG     1       0.222  -0.378   1.203  1.00  0.00     0.153 C 
ENDROOT
BRANCH   1   2
HETATM    2  C   LIG     1      -1.000  -0.102   0.297  1.00  0.00     0.028 C 
HETATM    3  C   LIG     1      -2.187  -0.961   0.775  1.00  0.00     0.003 C 
HETATM    4  C   LIG     1      -1.392   1.388   0.376  1.00  0.00     0.003 C 
HETATM    5  C   LIG     1      -0.667  -0.470  -1.163  1.00  0.00     0.003 C 
ENDBRANCH   1   2
BRANCH   1   6
HETATM    6  O   LIG     1       1.339   0.423   0.809  1.00  0.00    -0.287 OA
BRANCH   6   7
HETATM    7  C   LIG     1       2.567  -0.096   0.384  1.00  0.00     0.373 C 
HETATM    8  N   LIG     1       3.615   0.797   0.017  1.00  0.00    -0.032 NA
HETATM    9  O   LIG     1       2.758  -1.341   0.316  1.00  0.00    -0.242 OA
ENDBRANCH   6   7
ENDBRANCH   1   6
TORSDOF 3
