REMARK  5 active torsions:
REMARK  status: ('A' for Active; 'I' for Inactive)
REMARK    1  A    between atoms: C_2  and  C_5 
REMARK    2  A    between atoms: C_9  and  C_10 
REMARK    3  A    between atoms: C_10  and  C_22 
REMARK    4  A    between atoms: C_10  and  C_11 
REMARK    5  A    between atoms: C_10  and  N_17 
ROOT
HETATM    1  C   LIG     1      -0.477  -0.029   0.454  1.00  0.00     0.144 C 
ENDROOT
BRANCH   1   2
HETATM    2  C   LIG     1       1.046   0.228   0.624  1.00  0.00     0.005 A 
HETATM    3  C   LIG     1       1.518   0.949   1.746  1.00  0.00    -0.002 A 
HETATM    4  C   LIG     1       2.875   1.220   1.914  1.00  0.00    -0.000 A 
HETATM    5  C   LIG     1       3.799   0.799   0.962  1.00  0.00     0.004 A 
HETATM    6  C   LIG     1       3.369   0.110  -0.182  1.00  0.00     0.071 A 
HETATM    7  C   LIG     1       2.000  -0.161  -0.348  1.00  0.00     0.002 A 
BRANCH   6   8
HETATM    8  C   LIG     1       4.343  -0.343  -1.242  1.00  0.00     0.419 C 
HETATM    9  F   LIG     1       5.646   0.001  -0.923  1.00  0.00    -0.166 F 
HETATM   10  F   LIG     1       4.271  -1.718  -1.376  1.00  0.00    -0.166 F 
HETATM   11  F   LIG     1       4.016   0.245  -2.450  1.00  0.00    -0.166 F 
ENDBRANCH   6   8
ENDBRANCH   1   2
BRANCH   1  12
HETATM   12  C   LIG     1      -1.178   1.221  -0.155  1.00  0.00     0.006 A 
HETATM   13  C   LIG     1      -0.584   2.507  -0.165  1.00  0.00    -0.002 A 
HETATM   14  C   LIG     1      -1.256   3.608  -0.706  1.00  0.00    -0.000 A 
HETATM   15  C   LIG     1      -2.533   3.459  -1.242  1.00  0.00    -0.000 A 
HETATM   16  C   LIG     1      -3.145   2.208  -1.239  1.00  0.00    -0.000 A 
HETATM   17  C   LIG     1      -2.481   1.103  -0.700  1.00  0.00    -0.002 A 
ENDBRANCH   1  12
BRANCH   1  18
HETATM   18  C   LIG     1      -0.698  -1.263  -0.463  1.00  0.00     0.006 A 
HETATM   19  C   LIG     1      -0.775  -2.574   0.065  1.00  0.00    -0.002 A 
HETATM   20  C   LIG     1      -0.940  -3.679  -0.774  1.00  0.00    -0.000 A 
HETATM   21  C   LIG     1      -1.009  -3.509  -2.156  1.00  0.00    -0.000 A 
HETATM   22  C   LIG     1      -0.900  -2.233  -2.705  1.00  0.00    -0.000 A 
HETATM   23  C   LIG     1      -0.736  -1.123  -1.873  1.00  0.00    -0.002 A 
ENDBRANCH   1  18
BRANCH   1  24
HETATM   24  N   LIG     1      -1.066  -0.315   1.795  1.00  0.00    -0.222 N 
HETATM   25  C   LIG     1      -2.329  -0.107   2.231  1.00  0.00     0.198 A 
HETATM   26  N   LIG     1      -2.508  -0.575   3.481  1.00  0.00    -0.201 NA
HETATM   27  C   LIG     1      -1.298  -1.089   3.777  1.00  0.00     0.221 A 
HETATM   28  N   LIG     1      -0.424  -0.948   2.766  1.00  0.00    -0.144 NA
ENDBRANCH   1  24
TORSDOF 5
