REMARK  4 active torsions:
REMARK  status: ('A' for Active; 'I' for Inactive)
REMARK    1  A    between atoms: C_2  and  C_4 
REMARK    2  A    between atoms: C_4  and  C_6 
REMARK    3  A    between atoms: C_6  and  C_7 
REMARK    4  A    between atoms: C_7  and  C_8 
ROOT
HETATM    1  C   LIG     1      -0.594  -0.553  -0.523  1.00  0.00     0.030 C 
HETATM    2  C   LIG     1      -0.697  -1.053  -1.976  1.00  0.00     0.003 C 
ENDROOT
BRANCH   1   3
HETATM    3  C   LIG     1      -1.986  -0.652   0.164  1.00  0.00     0.152 C 
HETATM    4  C   LIG     1      -1.914  -0.538   1.696  1.00  0.00     0.036 C 
HETATM    5  O   LIG     1      -2.899   0.274  -0.374  1.00  0.00    -0.224 OA
ENDBRANCH   1   3
BRANCH   1   6
HETATM    6  C   LIG     1       0.005   0.880  -0.482  1.00  0.00     0.003 C 
BRANCH   6   7
HETATM    7  C   LIG     1       1.539   0.907  -0.677  1.00  0.00     0.000 C 
BRANCH   7   8
HETATM    8  C   LIG     1       2.321   1.083   0.635  1.00  0.00     0.000 C 
HETATM    9  C   LIG     1       2.199  -0.121   1.566  1.00  0.00     0.000 C 
ENDBRANCH   7   8
ENDBRANCH   6   7
ENDBRANCH   1   6
TORSDOF 4
