REMARK  4 active torsions:
REMARK  status: ('A' for Active; 'I' for Inactive)
REMARK    1  A    between atoms: O_2  and  C_3 
REMARK       I    between atoms: C_3  and  N_5 
REMARK    2  A    between atoms: N_5  and  C_6 
REMARK    3  A    between atoms: C_11  and  C_15 
REMARK    4  A    between atoms: C_15  and  C_17 
ROOT
HETATM    1  C   LIG     1       3.006   0.360   0.175  1.00  0.00     0.755 A 
HETATM    2  N   LIG     1       2.415  -0.313  -0.850  1.00  0.00    -0.058 NA
HETATM    3  C   LIG     1       1.113  -0.024  -0.676  1.00  0.00     0.118 A 
HETATM    4  C   LIG     1       0.037  -0.447  -1.450  1.00  0.00     0.021 A 
HETATM    5  C   LIG     1      -1.249  -0.013  -1.079  1.00  0.00     0.005 A 
HETATM    6  C   LIG     1      -1.437   0.821   0.058  1.00  0.00     0.041 A 
HETATM    7  C   LIG     1      -0.311   1.238   0.807  1.00  0.00     0.025 A 
HETATM    8  C   LIG     1       0.943   0.786   0.405  1.00  0.00     0.118 A 
HETATM    9  N   LIG     1       2.135   1.040   0.959  1.00  0.00    -0.058 NA
ENDROOT
BRANCH   6  10
HETATM   10  C   LIG     1      -2.789   1.294   0.440  1.00  0.00     0.196 C 
HETATM   11  O   LIG     1      -2.908   2.435   0.964  1.00  0.00    -0.287 OA
BRANCH  10  12
HETATM   12  C   LIG     1      -4.006   0.474   0.227  1.00  0.00     0.039 A 
HETATM   13  C   LIG     1      -3.963  -0.929   0.333  1.00  0.00     0.003 A 
HETATM   14  C   LIG     1      -5.122  -1.688   0.148  1.00  0.00     0.000 A 
HETATM   15  C   LIG     1      -6.336  -1.057  -0.133  1.00  0.00     0.000 A 
HETATM   16  C   LIG     1      -6.394   0.336  -0.224  1.00  0.00     0.000 A 
HETATM   17  C   LIG     1      -5.237   1.099  -0.040  1.00  0.00     0.003 A 
ENDBRANCH  10  12
ENDBRANCH   6  10
BRANCH   1  18
HETATM   18  N   LIG     1       4.420   0.359   0.416  1.00  0.00     0.005 NA
HETATM   19  C   LIG     1       5.373  -0.347  -0.389  1.00  0.00     0.403 C 
HETATM   20  O   LIG     1       4.998  -1.026  -1.384  1.00  0.00    -0.235 OA
BRANCH  19  21
HETATM   21  O   LIG     1       6.729  -0.274  -0.057  1.00  0.00    -0.280 OA
HETATM   22  C   LIG     1       7.739  -0.944  -0.802  1.00  0.00     0.186 C 
ENDBRANCH  19  21
ENDBRANCH   1  18
TORSDOF 4
