REMARK  0 active torsions:
REMARK  status: ('A' for Active; 'I' for Inactive)
ROOT
HETATM    1  O   LIG     1      -2.442  -0.964   0.229  1.00  0.00    -0.169 OA
HETATM    2  C   LIG     1      -1.394  -0.052   0.135  1.00  0.00     0.219 A 
HETATM    3  C   LIG     1      -0.071  -0.457   0.003  1.00  0.00     0.102 A 
HETATM    4  C   LIG     1       0.567  -1.677  -0.071  1.00  0.00     0.129 A 
HETATM    5  N   LIG     1       1.899  -1.449  -0.199  1.00  0.00    -0.145 NA
HETATM    6  N   LIG     1       2.106  -0.136  -0.207  1.00  0.00    -0.128 NA
HETATM    7  C   LIG     1       0.916   0.468  -0.085  1.00  0.00     0.190 A 
HETATM    8  N   LIG     1       0.672   1.799  -0.048  1.00  0.00    -0.203 NA
HETATM    9  C   LIG     1      -0.626   2.209   0.082  1.00  0.00     0.202 A 
HETATM   10  N   LIG     1      -1.642   1.291   0.173  1.00  0.00    -0.198 NA
ENDROOT
TORSDOF 0
