REMARK  1 active torsions:
REMARK  status: ('A' for Active; 'I' for Inactive)
REMARK    1  A    between atoms: C_9  and  C_10 
ROOT
HETATM    1 CL   LIG     1       0.314   2.383   1.651  1.00  0.00    -0.082 Cl
HETATM    2  C   LIG     1       1.306   1.203   0.799  1.00  0.00     0.059 A 
HETATM    3  C   LIG     1       2.698   1.322   0.889  1.00  0.00     0.024 A 
HETATM    4  C   LIG     1       3.534   0.382   0.279  1.00  0.00     0.069 A 
HETATM    5 CL   LIG     1       5.276   0.572   0.421  1.00  0.00    -0.082 Cl
HETATM    6  C   LIG     1       2.974  -0.696  -0.425  1.00  0.00     0.068 A 
HETATM    7 CL   LIG     1       3.990  -1.903  -1.201  1.00  0.00    -0.082 Cl
HETATM    8  C   LIG     1       1.584  -0.819  -0.518  1.00  0.00     0.013 A 
HETATM    9  C   LIG     1       0.737   0.128   0.082  1.00  0.00     0.011 A 
ENDROOT
BRANCH   9  10
HETATM   10  C   LIG     1      -0.728  -0.030  -0.051  1.00  0.00     0.002 A 
HETATM   11  C   LIG     1      -1.507   0.990  -0.622  1.00  0.00     0.001 A 
HETATM   12  C   LIG     1      -2.887   0.829  -0.761  1.00  0.00     0.012 A 
HETATM   13  C   LIG     1      -3.506  -0.354  -0.341  1.00  0.00     0.068 A 
HETATM   14  C   LIG     1      -2.733  -1.384   0.220  1.00  0.00     0.068 A 
HETATM   15 CL   LIG     1      -5.246  -0.519  -0.533  1.00  0.00    -0.082 Cl
HETATM   16 CL   LIG     1      -3.470  -2.888   0.755  1.00  0.00    -0.082 Cl
HETATM   17  C   LIG     1      -1.350  -1.220   0.358  1.00  0.00     0.012 A 
ENDBRANCH   9  10
TORSDOF 1
