REMARK  0 active torsions:
REMARK  status: ('A' for Active; 'I' for Inactive)
ROOT
HETATM    1 CL   LIG     1       3.002  -0.978   0.039  1.00  0.00    -0.113 Cl
HETATM    2  C   LIG     1       1.321  -0.500  -0.363  1.00  0.00     0.113 C 
HETATM    3  C   LIG     1       1.110   0.989  -0.015  1.00  0.00     0.113 C 
HETATM    4 CL   LIG     1       2.262   2.035  -0.907  1.00  0.00    -0.113 Cl
HETATM    5  C   LIG     1      -0.343   1.443  -0.270  1.00  0.00     0.113 C 
HETATM    6 CL   LIG     1      -0.703   1.572  -2.027  1.00  0.00    -0.113 Cl
HETATM    7  C   LIG     1      -1.341   0.527   0.475  1.00  0.00     0.113 C 
HETATM    8 CL   LIG     1      -3.036   1.032   0.192  1.00  0.00    -0.113 Cl
HETATM    9  C   LIG     1      -1.137  -0.975   0.175  1.00  0.00     0.113 C 
HETATM   10 CL   LIG     1      -1.689  -1.431  -1.474  1.00  0.00    -0.113 Cl
HETATM   11  C   LIG     1       0.331  -1.387   0.422  1.00  0.00     0.113 C 
HETATM   12 CL   LIG     1       0.569  -3.123   0.041  1.00  0.00    -0.113 Cl
ENDROOT
TORSDOF 0
