REMARK  0 active torsions:
REMARK  status: ('A' for Active; 'I' for Inactive)
ROOT
HETATM    1  C   LIG     1       3.601   1.568  -0.248  1.00  0.00     0.031 C 
HETATM    2  C   LIG     1       2.816   0.282  -0.238  1.00  0.00    -0.019 A 
HETATM    3  C   LIG     1       1.404   0.265  -0.113  1.00  0.00     0.015 A 
HETATM    4  C   LIG     1       0.646   1.445   0.010  1.00  0.00     0.001 A 
HETATM    5  C   LIG     1      -0.744   1.391   0.131  1.00  0.00     0.001 A 
HETATM    6  C   LIG     1      -1.418   0.155   0.134  1.00  0.00     0.015 A 
HETATM    7  C   LIG     1      -0.664  -1.038   0.011  1.00  0.00     0.099 A 
HETATM    8  N   LIG     1      -1.297  -2.243   0.011  1.00  0.00    -0.243 NA
HETATM    9  C   LIG     1      -2.644  -2.349   0.127  1.00  0.00     0.099 A 
HETATM   10  C   LIG     1      -3.430  -1.205   0.250  1.00  0.00     0.016 A 
HETATM   11  C   LIG     1      -2.828   0.062   0.256  1.00  0.00    -0.019 A 
HETATM   12  C   LIG     1      -3.700   1.285   0.390  1.00  0.00     0.031 C 
HETATM   13  C   LIG     1       0.734  -0.983  -0.112  1.00  0.00     0.099 A 
HETATM   14  N   LIG     1       1.448  -2.136  -0.229  1.00  0.00    -0.243 NA
HETATM   15  C   LIG     1       2.799  -2.138  -0.350  1.00  0.00     0.099 A 
HETATM   16  C   LIG     1       3.504  -0.936  -0.357  1.00  0.00     0.016 A 
ENDROOT
TORSDOF 0
