REMARK  1 active torsions:
REMARK  status: ('A' for Active; 'I' for Inactive)
REMARK    1  A    between atoms: C_8  and  C_9 
ROOT
HETATM    1 CL   LIG     1      -0.600  -2.772   0.594  1.00  0.00    -0.082 Cl
HETATM    2  C   LIG     1      -1.458  -1.260   0.315  1.00  0.00     0.058 A 
HETATM    3  C   LIG     1      -2.858  -1.277   0.359  1.00  0.00     0.012 A 
HETATM    4  C   LIG     1      -3.587  -0.117   0.089  1.00  0.00     0.012 A 
HETATM    5  C   LIG     1      -2.922   1.069  -0.234  1.00  0.00     0.058 A 
HETATM    6 CL   LIG     1      -3.841   2.523  -0.578  1.00  0.00    -0.082 Cl
HETATM    7  C   LIG     1      -1.525   1.096  -0.281  1.00  0.00     0.012 A 
HETATM    8  C   LIG     1      -0.779  -0.062   0.001  1.00  0.00     0.011 A 
ENDROOT
BRANCH   8   9
HETATM    9  C   LIG     1       0.699   0.007  -0.044  1.00  0.00     0.002 A 
HETATM   10  C   LIG     1       1.350   0.456  -1.203  1.00  0.00     0.001 A 
HETATM   11  C   LIG     1       2.744   0.537  -1.243  1.00  0.00     0.012 A 
HETATM   12  C   LIG     1       3.505   0.178  -0.125  1.00  0.00     0.068 A 
HETATM   13  C   LIG     1       2.861  -0.260   1.045  1.00  0.00     0.068 A 
HETATM   14 CL   LIG     1       5.257   0.293  -0.214  1.00  0.00    -0.082 Cl
HETATM   15 CL   LIG     1       3.778  -0.709   2.476  1.00  0.00    -0.082 Cl
HETATM   16  C   LIG     1       1.464  -0.340   1.083  1.00  0.00     0.012 A 
ENDBRANCH   8   9
TORSDOF 1
