REMARK  1 active torsions:
REMARK  status: ('A' for Active; 'I' for Inactive)
REMARK    1  A    between atoms: C_5  and  C_6 
ROOT
HETATM    1 CL   LIG     1       5.214   1.085  -0.267  1.00  0.00    -0.082 Cl
HETATM    2  C   LIG     1       3.498   0.724  -0.207  1.00  0.00     0.059 A 
HETATM    3  C   LIG     1       2.568   1.762  -0.113  1.00  0.00     0.011 A 
HETATM    4  C   LIG     1       1.202   1.476  -0.067  1.00  0.00     0.002 A 
HETATM    5  C   LIG     1       0.749   0.146  -0.108  1.00  0.00     0.011 A 
HETATM    6  C   LIG     1       1.693  -0.900  -0.215  1.00  0.00     0.059 A 
HETATM    7 CL   LIG     1       1.203  -2.586  -0.359  1.00  0.00    -0.082 Cl
HETATM    8  C   LIG     1       3.061  -0.603  -0.261  1.00  0.00     0.023 A 
ENDROOT
BRANCH   5   9
HETATM    9  C   LIG     1      -0.706  -0.122  -0.042  1.00  0.00     0.002 A 
HETATM   10  C   LIG     1      -1.575   0.474  -0.968  1.00  0.00     0.001 A 
HETATM   11  C   LIG     1      -2.950   0.236  -0.899  1.00  0.00     0.012 A 
HETATM   12  C   LIG     1      -3.474  -0.591   0.100  1.00  0.00     0.068 A 
HETATM   13  C   LIG     1      -2.613  -1.181   1.040  1.00  0.00     0.068 A 
HETATM   14 CL   LIG     1      -5.210  -0.867   0.154  1.00  0.00    -0.082 Cl
HETATM   15 CL   LIG     1      -3.231  -2.219   2.318  1.00  0.00    -0.082 Cl
HETATM   16  C   LIG     1      -1.235  -0.941   0.969  1.00  0.00     0.012 A 
ENDBRANCH   5   9
TORSDOF 1
