REMARK  0 active torsions:
REMARK  status: ('A' for Active; 'I' for Inactive)
ROOT
HETATM    1  F   LIG     1       2.013   1.881  -0.060  1.00  0.00    -0.202 F 
HETATM    2  C   LIG     1       1.023   0.955  -0.031  1.00  0.00     0.170 A 
HETATM    3  C   LIG     1       1.338  -0.410  -0.035  1.00  0.00     0.170 A 
HETATM    4  F   LIG     1       2.634  -0.809  -0.070  1.00  0.00    -0.202 F 
HETATM    5  C   LIG     1       0.315  -1.363  -0.005  1.00  0.00     0.064 A 
HETATM    6  C   LIG     1      -1.023  -0.955   0.031  1.00  0.00     0.170 A 
HETATM    7  F   LIG     1      -2.013  -1.881   0.060  1.00  0.00    -0.202 F 
HETATM    8  C   LIG     1      -1.338   0.410   0.035  1.00  0.00     0.170 A 
HETATM    9  F   LIG     1      -2.634   0.809   0.070  1.00  0.00    -0.202 F 
HETATM   10  C   LIG     1      -0.315   1.363   0.005  1.00  0.00     0.064 A 
ENDROOT
TORSDOF 0
