REMARK  2 active torsions:
REMARK  status: ('A' for Active; 'I' for Inactive)
REMARK       I    between atoms: C_2  and  N_3 
REMARK       I    between atoms: C_2  and  N_12 
REMARK    1  A    between atoms: N_3  and  C_4 
REMARK    2  A    between atoms: N_12  and  O_14 
ROOT
HETATM    1  C   LIG     1       1.422  -0.167   0.304  1.00  0.00     0.087 A 
HETATM    2  C   LIG     1       2.468  -0.927   0.848  1.00  0.00     0.032 A 
HETATM    3  C   LIG     1       3.775  -0.427   0.877  1.00  0.00     0.070 A 
HETATM    4 CL   LIG     1       5.055  -1.425   1.554  1.00  0.00    -0.081 Cl
HETATM    5  C   LIG     1       4.043   0.856   0.370  1.00  0.00     0.068 A 
HETATM    6 CL   LIG     1       5.670   1.523   0.389  1.00  0.00    -0.082 Cl
HETATM    7  C   LIG     1       3.000   1.627  -0.152  1.00  0.00     0.014 A 
HETATM    8  C   LIG     1       1.696   1.125  -0.180  1.00  0.00     0.020 A 
ENDROOT
BRANCH   1   9
HETATM    9  N   LIG     1       0.086  -0.698   0.310  1.00  0.00    -0.191 NA
HETATM   10  C   LIG     1      -0.894  -0.404  -0.703  1.00  0.00     0.369 C 
HETATM   11  O   LIG     1      -0.526   0.072  -1.812  1.00  0.00    -0.242 OA
HETATM   12  N   LIG     1      -2.293  -0.669  -0.486  1.00  0.00    -0.186 N 
HETATM   13  C   LIG     1      -2.766  -1.348   0.720  1.00  0.00     0.164 C 
BRANCH  12  14
HETATM   14  O   LIG     1      -3.187  -0.377  -1.471  1.00  0.00    -0.251 OA
HETATM   15  C   LIG     1      -3.665   0.923  -1.219  1.00  0.00     0.209 C 
ENDBRANCH  12  14
ENDBRANCH   1   9
TORSDOF 2
