REMARK  4 active torsions:
REMARK  status: ('A' for Active; 'I' for Inactive)
REMARK    1  A    between atoms: N_2  and  C_3 
REMARK    2  A    between atoms: N_2  and  C_13 
REMARK    3  A    between atoms: N_4  and  C_5 
REMARK    4  A    between atoms: N_14  and  C_15 
ROOT
HETATM    1  C   LIG     1       0.116   0.367  -0.106  1.00  0.00     0.134 C 
HETATM    2  N   LIG     1      -0.123  -1.036  -0.464  1.00  0.00    -0.291 N 
ENDROOT
BRANCH   2   3
HETATM    3  C   LIG     1       0.572  -2.108   0.192  1.00  0.00     0.180 C 
HETATM    4  N   LIG     1       1.864  -2.120   0.357  1.00  0.00    -0.226 NA
BRANCH   4   5
HETATM    5  C   LIG     1       2.813  -1.197  -0.203  1.00  0.00     0.079 A 
HETATM    6  C   LIG     1       2.746  -0.838  -1.560  1.00  0.00     0.018 A 
HETATM    7  C   LIG     1       3.687   0.034  -2.110  1.00  0.00    -0.003 A 
HETATM    8  C   LIG     1       4.716   0.555  -1.314  1.00  0.00    -0.022 A 
HETATM    9  C   LIG     1       5.749   1.462  -1.915  1.00  0.00     0.031 C 
HETATM   10  C   LIG     1       4.818   0.161   0.028  1.00  0.00    -0.007 A 
HETATM   11  C   LIG     1       3.875  -0.718   0.589  1.00  0.00    -0.004 A 
HETATM   12  C   LIG     1       3.989  -1.121   2.033  1.00  0.00     0.033 C 
ENDBRANCH   4   5
ENDBRANCH   2   3
BRANCH   2  13
HETATM   13  C   LIG     1      -0.999  -1.371  -1.551  1.00  0.00     0.180 C 
HETATM   14  N   LIG     1      -2.254  -1.027  -1.582  1.00  0.00    -0.226 NA
BRANCH  14  15
HETATM   15  C   LIG     1      -3.012  -0.428  -0.518  1.00  0.00     0.079 A 
HETATM   16  C   LIG     1      -2.906  -0.907   0.799  1.00  0.00     0.018 A 
HETATM   17  C   LIG     1      -3.669  -0.341   1.822  1.00  0.00    -0.003 A 
HETATM   18  C   LIG     1      -4.557   0.706   1.546  1.00  0.00    -0.022 A 
HETATM   19  C   LIG     1      -5.404   1.286   2.639  1.00  0.00     0.031 C 
HETATM   20  C   LIG     1      -4.704   1.155   0.225  1.00  0.00    -0.007 A 
HETATM   21  C   LIG     1      -3.940   0.592  -0.811  1.00  0.00    -0.004 A 
HETATM   22  C   LIG     1      -4.102   1.091  -2.221  1.00  0.00     0.033 C 
ENDBRANCH  14  15
ENDBRANCH   2  13
TORSDOF 4
