REMARK  1 active torsions:
REMARK  status: ('A' for Active; 'I' for Inactive)
REMARK    1  A    between atoms: C_8  and  C_9 
ROOT
HETATM    1 CL   LIG     1       0.774  -0.143  -2.739  1.00  0.00    -0.082 Cl
HETATM    2  C   LIG     1       1.526   0.029  -1.155  1.00  0.00     0.059 A 
HETATM    3  C   LIG     1       2.918   0.158  -1.091  1.00  0.00     0.011 A 
HETATM    4  C   LIG     1       3.555   0.325   0.139  1.00  0.00     0.002 A 
HETATM    5  C   LIG     1       2.805   0.366   1.315  1.00  0.00     0.011 A 
HETATM    6  C   LIG     1       1.412   0.239   1.270  1.00  0.00     0.059 A 
HETATM    7 CL   LIG     1       0.521   0.262   2.789  1.00  0.00    -0.082 Cl
HETATM    8  C   LIG     1       0.758   0.069   0.030  1.00  0.00     0.021 A 
ENDROOT
BRANCH   8   9
HETATM    9  C   LIG     1      -0.713  -0.065  -0.028  1.00  0.00     0.002 A 
HETATM   10  C   LIG     1      -1.536   1.028   0.286  1.00  0.00     0.000 A 
HETATM   11  C   LIG     1      -2.927   0.899   0.232  1.00  0.00     0.000 A 
HETATM   12  C   LIG     1      -3.503  -0.320  -0.137  1.00  0.00     0.000 A 
HETATM   13  C   LIG     1      -2.689  -1.412  -0.451  1.00  0.00     0.000 A 
HETATM   14  C   LIG     1      -1.298  -1.287  -0.397  1.00  0.00     0.000 A 
ENDBRANCH   8   9
TORSDOF 1
