REMARK  1 active torsions:
REMARK  status: ('A' for Active; 'I' for Inactive)
REMARK    1  A    between atoms: C_8  and  C_9 
ROOT
HETATM    1 CL   LIG     1       0.676  -1.084   2.572  1.00  0.00    -0.082 Cl
HETATM    2  C   LIG     1       1.460  -0.469   1.120  1.00  0.00     0.059 A 
HETATM    3  C   LIG     1       2.860  -0.475   1.073  1.00  0.00     0.023 A 
HETATM    4  C   LIG     1       3.530  -0.050  -0.078  1.00  0.00     0.059 A 
HETATM    5 CL   LIG     1       5.284  -0.062  -0.127  1.00  0.00    -0.082 Cl
HETATM    6  C   LIG     1       2.803   0.376  -1.192  1.00  0.00     0.011 A 
HETATM    7  C   LIG     1       1.407   0.385  -1.155  1.00  0.00     0.002 A 
HETATM    8  C   LIG     1       0.720  -0.028   0.000  1.00  0.00     0.011 A 
ENDROOT
BRANCH   8   9
HETATM    9  C   LIG     1      -0.760   0.009   0.010  1.00  0.00     0.001 A 
HETATM   10  C   LIG     1      -1.450   0.752   0.983  1.00  0.00     0.000 A 
HETATM   11  C   LIG     1      -2.848   0.797   0.976  1.00  0.00     0.000 A 
HETATM   12  C   LIG     1      -3.566   0.108  -0.005  1.00  0.00     0.000 A 
HETATM   13  C   LIG     1      -2.887  -0.623  -0.984  1.00  0.00     0.000 A 
HETATM   14  C   LIG     1      -1.489  -0.670  -0.981  1.00  0.00     0.000 A 
ENDBRANCH   8   9
TORSDOF 1
