REMARK  1 active torsions:
REMARK  status: ('A' for Active; 'I' for Inactive)
REMARK    1  A    between atoms: C_10  and  C_11 
ROOT
HETATM    1 CL   LIG     1       0.523   2.190   1.913  1.00  0.00    -0.082 Cl
HETATM    2  C   LIG     1       1.390   1.059   0.867  1.00  0.00     0.069 A 
HETATM    3  C   LIG     1       2.794   1.131   0.777  1.00  0.00     0.080 A 
HETATM    4 CL   LIG     1       3.673   2.386   1.655  1.00  0.00    -0.081 Cl
HETATM    5  C   LIG     1       3.499   0.200  -0.007  1.00  0.00     0.080 A 
HETATM    6 CL   LIG     1       5.258   0.286  -0.125  1.00  0.00    -0.081 Cl
HETATM    7  C   LIG     1       2.800  -0.805  -0.694  1.00  0.00     0.069 A 
HETATM    8 CL   LIG     1       3.642  -1.994  -1.681  1.00  0.00    -0.082 Cl
HETATM    9  C   LIG     1       1.409  -0.875  -0.605  1.00  0.00     0.013 A 
HETATM   10  C   LIG     1       0.692   0.055   0.162  1.00  0.00     0.012 A 
ENDROOT
BRANCH  10  11
HETATM   11  C   LIG     1      -0.784  -0.049   0.211  1.00  0.00     0.001 A 
HETATM   12  C   LIG     1      -1.395  -1.236   0.649  1.00  0.00     0.000 A 
HETATM   13  C   LIG     1      -2.788  -1.343   0.678  1.00  0.00     0.000 A 
HETATM   14  C   LIG     1      -3.582  -0.270   0.263  1.00  0.00     0.000 A 
HETATM   15  C   LIG     1      -2.983   0.910  -0.187  1.00  0.00     0.000 A 
HETATM   16  C   LIG     1      -1.589   1.021  -0.218  1.00  0.00     0.000 A 
ENDBRANCH  10  11
TORSDOF 1
