REMARK  8 active torsions:
REMARK  status: ('A' for Active; 'I' for Inactive)
REMARK    1  A    between atoms: C_2  and  C_3 
REMARK    2  A    between atoms: C_3  and  C_4 
REMARK    3  A    between atoms: C_4  and  C_5 
REMARK    4  A    between atoms: C_5  and  C_6 
REMARK    5  A    between atoms: C_6  and  C_7 
REMARK    6  A    between atoms: C_7  and  C_8 
REMARK    7  A    between atoms: C_8  and  C_9 
REMARK    8  A    between atoms: C_9  and  C_10 
ROOT
HETATM    1  C   LIG     1       0.450   0.489   0.364  1.00  0.00     0.000 C 
ENDROOT
BRANCH   1   2
HETATM    2  C   LIG     1      -0.413   1.287  -0.630  1.00  0.00     0.000 C 
BRANCH   2   3
HETATM    3  C   LIG     1      -1.362   0.442  -1.506  1.00  0.00     0.000 C 
BRANCH   3   4
HETATM    4  C   LIG     1      -2.321  -0.477  -0.730  1.00  0.00     0.000 C 
BRANCH   4   5
HETATM    5  C   LIG     1      -3.271   0.298   0.195  1.00  0.00     0.000 C 
HETATM    6  C   LIG     1      -4.302  -0.632   0.828  1.00  0.00     0.000 C 
ENDBRANCH   4   5
ENDBRANCH   3   4
ENDBRANCH   2   3
ENDBRANCH   1   2
BRANCH   1   7
HETATM    7  C   LIG     1       1.409  -0.492  -0.332  1.00  0.00     0.001 C 
BRANCH   7   8
HETATM    8  C   LIG     1       2.287  -1.272   0.664  1.00  0.00     0.011 C 
BRANCH   8   9
HETATM    9  C   LIG     1       3.349  -0.417   1.375  1.00  0.00     0.098 C 
BRANCH   9  10
HETATM   10  C   LIG     1       4.319   0.200   0.409  1.00  0.00     0.185 C 
HETATM   11  O   LIG     1       4.394   1.582   0.261  1.00  0.00    -0.647 OA
HETATM   12  O   LIG     1       5.078  -0.536  -0.275  1.00  0.00    -0.647 OA
ENDBRANCH   9  10
ENDBRANCH   8   9
ENDBRANCH   7   8
ENDBRANCH   1   7
TORSDOF 8
