REMARK  2 active torsions:
REMARK  status: ('A' for Active; 'I' for Inactive)
REMARK    1  A    between atoms: C_8  and  O_9 
REMARK    2  A    between atoms: O_9  and  C_10 
ROOT
HETATM    1  O   LIG     1       0.190  -0.999  -0.627  1.00  0.00    -0.304 OA
ENDROOT
BRANCH   1   2
HETATM    2  C   LIG     1      -1.155  -0.763  -0.300  1.00  0.00     0.111 A 
HETATM    3  C   LIG     1      -2.012  -1.857  -0.102  1.00  0.00     0.081 A 
HETATM    4 CL   LIG     1      -1.402  -3.500  -0.229  1.00  0.00    -0.080 Cl
HETATM    5  C   LIG     1      -3.360  -1.649   0.210  1.00  0.00     0.025 A 
HETATM    6  C   LIG     1      -3.864  -0.348   0.314  1.00  0.00     0.059 A 
HETATM    7  C   LIG     1      -3.022   0.746   0.098  1.00  0.00     0.013 A 
HETATM    8 CL   LIG     1      -5.555  -0.091   0.703  1.00  0.00    -0.082 Cl
HETATM    9  C   LIG     1      -1.675   0.542  -0.213  1.00  0.00     0.026 A 
ENDBRANCH   1   2
BRANCH   1  10
HETATM   10  C   LIG     1       1.268  -0.163  -0.297  1.00  0.00     0.125 A 
HETATM   11  C   LIG     1       1.274   0.592   0.891  1.00  0.00     0.028 A 
HETATM   12  C   LIG     1       2.367   1.403   1.207  1.00  0.00     0.014 A 
HETATM   13  C   LIG     1       3.468   1.459   0.349  1.00  0.00     0.060 A 
HETATM   14  C   LIG     1       3.479   0.697  -0.823  1.00  0.00     0.041 A 
HETATM   15 CL   LIG     1       4.841   2.476   0.748  1.00  0.00    -0.082 Cl
HETATM   16  C   LIG     1       2.388  -0.117  -1.147  1.00  0.00     0.154 A 
HETATM   17  O   LIG     1       2.432  -0.869  -2.321  1.00  0.00    -0.188 OA
ENDBRANCH   1  10
TORSDOF 2
