REMARK  1 active torsions:
REMARK  status: ('A' for Active; 'I' for Inactive)
REMARK    1  A    between atoms: C_6  and  C_7 
ROOT
HETATM    1 CL   LIG     1       5.282  -0.382   0.243  1.00  0.00    -0.082 Cl
HETATM    2  C   LIG     1       3.535  -0.256   0.163  1.00  0.00     0.059 A 
HETATM    3  C   LIG     1       2.890  -0.269  -1.077  1.00  0.00     0.023 A 
HETATM    4  C   LIG     1       1.496  -0.168  -1.148  1.00  0.00     0.059 A 
HETATM    5 CL   LIG     1       0.728  -0.188  -2.732  1.00  0.00    -0.082 Cl
HETATM    6  C   LIG     1       0.737  -0.053   0.034  1.00  0.00     0.023 A 
HETATM    7  C   LIG     1       1.393  -0.041   1.282  1.00  0.00     0.059 A 
HETATM    8 CL   LIG     1       0.494   0.100   2.789  1.00  0.00    -0.082 Cl
HETATM    9  C   LIG     1       2.788  -0.142   1.338  1.00  0.00     0.023 A 
ENDROOT
BRANCH   6  10
HETATM   10  C   LIG     1      -0.737   0.053  -0.034  1.00  0.00     0.023 A 
HETATM   11  C   LIG     1      -1.535  -1.108  -0.007  1.00  0.00     0.059 A 
HETATM   12  C   LIG     1      -2.929  -1.000  -0.072  1.00  0.00     0.023 A 
HETATM   13 CL   LIG     1      -0.817  -2.712   0.107  1.00  0.00    -0.082 Cl
HETATM   14  C   LIG     1      -3.535   0.256  -0.163  1.00  0.00     0.059 A 
HETATM   15  C   LIG     1      -2.749   1.411  -0.190  1.00  0.00     0.023 A 
HETATM   16 CL   LIG     1      -5.282   0.382  -0.243  1.00  0.00    -0.082 Cl
HETATM   17  C   LIG     1      -1.354   1.317  -0.126  1.00  0.00     0.059 A 
HETATM   18 CL   LIG     1      -0.406   2.800  -0.163  1.00  0.00    -0.082 Cl
ENDBRANCH   6  10
TORSDOF 1
