REMARK  2 active torsions:
REMARK  status: ('A' for Active; 'I' for Inactive)
REMARK    1  A    between atoms: C_2  and  C_4 
REMARK    2  A    between atoms: C_7  and  N_8 
REMARK       I    between atoms: N_8  and  C_9 
REMARK       I    between atoms: C_9  and  N_10 
ROOT
HETATM    1  C   LIG     1      -2.383  -0.080   0.270  1.00  0.00    -0.022 A 
HETATM    2  C   LIG     1      -1.504  -0.269  -0.813  1.00  0.00    -0.003 A 
HETATM    3  C   LIG     1      -0.120  -0.199  -0.625  1.00  0.00     0.019 A 
HETATM    4  C   LIG     1       0.412   0.074   0.646  1.00  0.00     0.086 A 
HETATM    5  C   LIG     1      -0.462   0.240   1.730  1.00  0.00     0.019 A 
HETATM    6  C   LIG     1      -1.845   0.171   1.544  1.00  0.00    -0.003 A 
ENDROOT
BRANCH   4   7
HETATM    7  N   LIG     1       1.832   0.127   0.869  1.00  0.00    -0.193 NA
HETATM    8  C   LIG     1       2.777   0.600  -0.109  1.00  0.00     0.346 C 
HETATM    9  N   LIG     1       4.182   0.290   0.006  1.00  0.00    -0.297 N 
HETATM   10  O   LIG     1       2.375   1.321  -1.064  1.00  0.00    -0.245 OA
HETATM   11  C   LIG     1       4.662  -0.623   1.048  1.00  0.00     0.130 C 
HETATM   12  C   LIG     1       5.123   0.866  -0.959  1.00  0.00     0.130 C 
ENDBRANCH   4   7
BRANCH   1  13
HETATM   13  C   LIG     1      -3.886  -0.152   0.081  1.00  0.00     0.022 C 
HETATM   14  C   LIG     1      -4.375   0.937  -0.881  1.00  0.00     0.005 C 
HETATM   15  C   LIG     1      -4.317  -1.544  -0.398  1.00  0.00     0.005 C 
ENDBRANCH   1  13
TORSDOF 2
