REMARK  2 active torsions:
REMARK  status: ('A' for Active; 'I' for Inactive)
REMARK    1  A    between atoms: C_4  and  C_5 
REMARK    2  A    between atoms: C_4  and  C_12 
ROOT
HETATM    1 CL   LIG     1      -1.863  -3.098  -1.131  1.00  0.00    -0.070 Cl
HETATM    2  C   LIG     1      -0.304  -2.276  -1.126  1.00  0.00     0.115 C 
HETATM    3 CL   LIG     1       1.024  -3.120  -1.916  1.00  0.00    -0.070 Cl
HETATM    4  C   LIG     1      -0.150  -1.056  -0.571  1.00  0.00     0.022 C 
ENDROOT
BRANCH   4   5
HETATM    5  C   LIG     1       1.178  -0.405  -0.471  1.00  0.00     0.002 A 
HETATM    6  C   LIG     1       2.241  -1.041   0.194  1.00  0.00     0.001 A 
HETATM    7  C   LIG     1       3.480  -0.405   0.312  1.00  0.00     0.011 A 
HETATM    8  C   LIG     1       3.665   0.876  -0.219  1.00  0.00     0.058 A 
HETATM    9  C   LIG     1       2.606   1.522  -0.865  1.00  0.00     0.011 A 
HETATM   10 CL   LIG     1       5.220   1.673  -0.068  1.00  0.00    -0.082 Cl
HETATM   11  C   LIG     1       1.366   0.888  -0.985  1.00  0.00     0.001 A 
ENDBRANCH   4   5
BRANCH   4  12
HETATM   12  C   LIG     1      -1.309  -0.326  -0.009  1.00  0.00     0.012 A 
HETATM   13  C   LIG     1      -1.413  -0.181   1.383  1.00  0.00     0.001 A 
HETATM   14  C   LIG     1      -2.490   0.511   1.942  1.00  0.00     0.000 A 
HETATM   15  C   LIG     1      -3.467   1.071   1.116  1.00  0.00     0.001 A 
HETATM   16  C   LIG     1      -3.365   0.947  -0.272  1.00  0.00     0.011 A 
HETATM   17  C   LIG     1      -2.289   0.255  -0.842  1.00  0.00     0.058 A 
HETATM   18 CL   LIG     1      -2.178   0.167  -2.597  1.00  0.00    -0.082 Cl
ENDBRANCH   4  12
TORSDOF 2
