REMARK  5 active torsions:
REMARK  status: ('A' for Active; 'I' for Inactive)
REMARK    1  A    between atoms: C_3  and  C_4 
REMARK    2  A    between atoms: C_4  and  C_5 
REMARK    3  A    between atoms: C_5  and  C_6 
REMARK    4  A    between atoms: C_6  and  C_7 
REMARK    5  A    between atoms: C_7  and  C_8 
ROOT
HETATM    1  C   LIG     1      -5.141  -0.160  -1.460  1.00  0.00    -0.014 C 
HETATM    2  C   LIG     1      -4.225  -0.441  -0.728  1.00  0.00    -0.077 C 
HETATM    3  C   LIG     1      -3.111  -0.784   0.162  1.00  0.00     0.077 C 
ENDROOT
BRANCH   3   4
HETATM    4  C   LIG     1      -1.835  -0.057  -0.273  1.00  0.00     0.014 C 
BRANCH   4   5
HETATM    5  C   LIG     1      -0.662  -0.407   0.650  1.00  0.00     0.001 C 
BRANCH   5   6
HETATM    6  C   LIG     1       0.616   0.321   0.217  1.00  0.00     0.000 C 
BRANCH   6   7
HETATM    7  C   LIG     1       1.792  -0.040   1.137  1.00  0.00     0.000 C 
BRANCH   7   8
HETATM    8  C   LIG     1       3.063   0.762   0.812  1.00  0.00     0.000 C 
HETATM    9  C   LIG     1       3.705   0.343  -0.510  1.00  0.00     0.000 C 
ENDBRANCH   7   8
ENDBRANCH   6   7
ENDBRANCH   5   6
ENDBRANCH   4   5
ENDBRANCH   3   4
TORSDOF 5
