REMARK  1 active torsions:
REMARK  status: ('A' for Active; 'I' for Inactive)
REMARK    1  A    between atoms: C_7  and  C_8 
ROOT
HETATM    1 CL   LIG     1       0.765  -1.129   2.544  1.00  0.00    -0.082 Cl
HETATM    2  C   LIG     1       1.518  -0.317   1.175  1.00  0.00     0.058 A 
HETATM    3  C   LIG     1       2.905  -0.117   1.206  1.00  0.00     0.011 A 
HETATM    4  C   LIG     1       3.558   0.471   0.121  1.00  0.00     0.001 A 
HETATM    5  C   LIG     1       2.831   0.859  -1.006  1.00  0.00     0.000 A 
HETATM    6  C   LIG     1       1.448   0.664  -1.048  1.00  0.00     0.001 A 
HETATM    7  C   LIG     1       0.775   0.084   0.042  1.00  0.00     0.011 A 
ENDROOT
BRANCH   7   8
HETATM    8  C   LIG     1      -0.693  -0.093  -0.030  1.00  0.00     0.001 A 
HETATM    9  C   LIG     1      -1.530   0.479   0.943  1.00  0.00     0.001 A 
HETATM   10  C   LIG     1      -2.917   0.322   0.861  1.00  0.00     0.011 A 
HETATM   11  C   LIG     1      -3.480  -0.400  -0.197  1.00  0.00     0.058 A 
HETATM   12  C   LIG     1      -2.654  -0.961  -1.176  1.00  0.00     0.011 A 
HETATM   13 CL   LIG     1      -5.220  -0.594  -0.299  1.00  0.00    -0.082 Cl
HETATM   14  C   LIG     1      -1.266  -0.806  -1.096  1.00  0.00     0.001 A 
ENDBRANCH   7   8
TORSDOF 1
