REMARK  0 active torsions:
REMARK  status: ('A' for Active; 'I' for Inactive)
ROOT
HETATM    1 CL   LIG     1       0.687  -3.237  -0.191  1.00  0.00    -0.080 Cl
HETATM    2  C   LIG     1       0.848  -1.481  -0.133  1.00  0.00     0.088 A 
HETATM    3  C   LIG     1      -0.297  -0.683  -0.003  1.00  0.00     0.111 A 
HETATM    4  C   LIG     1      -0.181   0.721   0.045  1.00  0.00     0.111 A 
HETATM    5  N   LIG     1      -1.308   1.475   0.172  1.00  0.00    -0.240 NA
HETATM    6  C   LIG     1      -2.537   0.901   0.253  1.00  0.00     0.120 A 
HETATM    7  C   LIG     1      -2.652  -0.488   0.205  1.00  0.00     0.120 A 
HETATM    8  N   LIG     1      -1.533  -1.248   0.079  1.00  0.00    -0.240 NA
HETATM    9  C   LIG     1       1.080   1.327  -0.037  1.00  0.00     0.088 A 
HETATM   10 CL   LIG     1       1.209   3.086   0.024  1.00  0.00    -0.080 Cl
HETATM   11  C   LIG     1       2.231   0.529  -0.168  1.00  0.00     0.081 A 
HETATM   12 CL   LIG     1       3.821   1.288  -0.272  1.00  0.00    -0.081 Cl
HETATM   13  C   LIG     1       2.115  -0.875  -0.215  1.00  0.00     0.081 A 
HETATM   14 CL   LIG     1       3.560  -1.875  -0.379  1.00  0.00    -0.081 Cl
ENDROOT
TORSDOF 0
