REMARK  1 active torsions:
REMARK  status: ('A' for Active; 'I' for Inactive)
REMARK    1  A    between atoms: C_8  and  C_9 
ROOT
HETATM    1 CL   LIG     1       3.778   1.736   1.955  1.00  0.00    -0.082 Cl
HETATM    2  C   LIG     1       2.883   0.735   0.820  1.00  0.00     0.068 A 
HETATM    3  C   LIG     1       3.546  -0.097  -0.097  1.00  0.00     0.069 A 
HETATM    4 CL   LIG     1       5.302  -0.174  -0.154  1.00  0.00    -0.082 Cl
HETATM    5  C   LIG     1       2.805  -0.878  -0.990  1.00  0.00     0.024 A 
HETATM    6  C   LIG     1       1.406  -0.842  -0.974  1.00  0.00     0.059 A 
HETATM    7 CL   LIG     1       0.521  -1.818  -2.141  1.00  0.00    -0.082 Cl
HETATM    8  C   LIG     1       0.738  -0.017  -0.048  1.00  0.00     0.012 A 
HETATM    9  C   LIG     1       1.485   0.773   0.839  1.00  0.00     0.013 A 
ENDROOT
BRANCH   8  10
HETATM   10  C   LIG     1      -0.737   0.045  -0.001  1.00  0.00     0.012 A 
HETATM   11  C   LIG     1      -1.385   1.176  -0.515  1.00  0.00     0.002 A 
HETATM   12  C   LIG     1      -2.776   1.263  -0.491  1.00  0.00     0.012 A 
HETATM   13  C   LIG     1      -3.539   0.225   0.052  1.00  0.00     0.069 A 
HETATM   14  C   LIG     1      -2.903  -0.911   0.583  1.00  0.00     0.079 A 
HETATM   15 CL   LIG     1      -5.291   0.381   0.058  1.00  0.00    -0.082 Cl
HETATM   16 CL   LIG     1      -3.867  -2.215   1.277  1.00  0.00    -0.081 Cl
HETATM   17  C   LIG     1      -1.497  -1.002   0.560  1.00  0.00     0.069 A 
HETATM   18 CL   LIG     1      -0.692  -2.410   1.260  1.00  0.00    -0.082 Cl
ENDBRANCH   8  10
TORSDOF 1
