REMARK  1 active torsions:
REMARK  status: ('A' for Active; 'I' for Inactive)
REMARK    1  A    between atoms: C_9  and  C_10 
ROOT
HETATM    1 CL   LIG     1      -0.661  -2.720  -0.430  1.00  0.00    -0.082 Cl
HETATM    2  C   LIG     1      -1.467  -1.202  -0.050  1.00  0.00     0.059 A 
HETATM    3  C   LIG     1      -2.866  -1.180  -0.004  1.00  0.00     0.024 A 
HETATM    4  C   LIG     1      -3.548  -0.003   0.320  1.00  0.00     0.069 A 
HETATM    5 CL   LIG     1      -5.306  -0.023   0.368  1.00  0.00    -0.082 Cl
HETATM    6  C   LIG     1      -2.825   1.167   0.603  1.00  0.00     0.068 A 
HETATM    7 CL   LIG     1      -3.644   2.668   1.014  1.00  0.00    -0.082 Cl
HETATM    8  C   LIG     1      -1.427   1.149   0.557  1.00  0.00     0.013 A 
HETATM    9  C   LIG     1      -0.738  -0.030   0.233  1.00  0.00     0.012 A 
ENDROOT
BRANCH   9  10
HETATM   10  C   LIG     1       0.740  -0.013   0.179  1.00  0.00     0.012 A 
HETATM   11  C   LIG     1       1.384  -0.166  -1.059  1.00  0.00     0.013 A 
HETATM   12  C   LIG     1       2.780  -0.141  -1.143  1.00  0.00     0.068 A 
HETATM   13  C   LIG     1       3.546   0.042   0.018  1.00  0.00     0.069 A 
HETATM   14 CL   LIG     1       3.541  -0.339  -2.716  1.00  0.00    -0.082 Cl
HETATM   15  C   LIG     1       2.909   0.197   1.254  1.00  0.00     0.024 A 
HETATM   16 CL   LIG     1       5.303   0.080  -0.044  1.00  0.00    -0.082 Cl
HETATM   17  C   LIG     1       1.513   0.171   1.343  1.00  0.00     0.059 A 
HETATM   18 CL   LIG     1       0.767   0.336   2.929  1.00  0.00    -0.082 Cl
ENDBRANCH   9  10
TORSDOF 1
