REMARK  1 active torsions:
REMARK  status: ('A' for Active; 'I' for Inactive)
REMARK       I    between atoms: C_2  and  N_3 
REMARK    1  A    between atoms: N_3  and  C_4 
ROOT
HETATM    1  C   LIG     1      -0.281   0.283  -0.146  1.00  0.00     0.085 A 
HETATM    2  C   LIG     1      -0.968   1.503  -0.252  1.00  0.00     0.021 A 
HETATM    3  C   LIG     1      -2.360   1.546  -0.118  1.00  0.00     0.031 A 
HETATM    4  C   LIG     1      -1.014  -0.900   0.059  1.00  0.00     0.021 A 
HETATM    5  C   LIG     1      -2.406  -0.854   0.191  1.00  0.00     0.031 A 
HETATM    6  C   LIG     1      -3.078   0.369   0.107  1.00  0.00     0.140 A 
HETATM    7  F   LIG     1      -4.427   0.411   0.234  1.00  0.00    -0.204 F 
ENDROOT
BRANCH   1   8
HETATM    8  N   LIG     1       1.148   0.263  -0.311  1.00  0.00    -0.212 NA
HETATM    9  C   LIG     1       2.026  -0.642   0.374  1.00  0.00     0.256 C 
HETATM   10  C   LIG     1       3.466  -0.718  -0.019  1.00  0.00     0.100 C 
HETATM   11  O   LIG     1       1.607  -1.350   1.329  1.00  0.00    -0.270 OA
ENDBRANCH   1   8
TORSDOF 1
