REMARK  1 active torsions:
REMARK  status: ('A' for Active; 'I' for Inactive)
REMARK    1  A    between atoms: C_2  and  C_3 
ROOT
HETATM    1  C   LIG     1       0.723  -0.007   0.057  1.00  0.00    -0.006 A 
HETATM    2  C   LIG     1       0.053   1.228   0.103  1.00  0.00    -0.001 A 
HETATM    3  C   LIG     1      -1.344   1.272   0.059  1.00  0.00     0.029 A 
HETATM    4  C   LIG     1      -0.025  -1.193  -0.027  1.00  0.00    -0.001 A 
HETATM    5  C   LIG     1      -1.422  -1.144  -0.071  1.00  0.00     0.029 A 
HETATM    6  C   LIG     1      -2.082   0.088  -0.029  1.00  0.00     0.140 A 
HETATM    7  F   LIG     1      -3.436   0.134  -0.071  1.00  0.00    -0.204 F 
ENDROOT
BRANCH   1   8
HETATM    8  C   LIG     1       2.224  -0.066   0.110  1.00  0.00     0.121 C 
HETATM    9 CL   LIG     1       2.872  -0.684  -1.430  1.00  0.00    -0.109 Cl
ENDBRANCH   1   8
TORSDOF 1
