REMARK  0 active torsions:
REMARK  status: ('A' for Active; 'I' for Inactive)
ROOT
HETATM    1  F   LIG     1      -2.693   0.795   0.231  1.00  0.00    -0.204 F 
HETATM    2  C   LIG     1      -1.397   0.412   0.120  1.00  0.00     0.140 A 
HETATM    3  C   LIG     1      -1.073  -0.946   0.031  1.00  0.00     0.030 A 
HETATM    4  C   LIG     1       0.264  -1.341  -0.084  1.00  0.00     0.008 A 
HETATM    5  C   LIG     1       1.279  -0.377  -0.110  1.00  0.00     0.030 A 
HETATM    6  I   LIG     1       3.295  -0.972  -0.282  1.00  0.00    -0.043 I 
HETATM    7  C   LIG     1       0.954   0.981  -0.021  1.00  0.00     0.008 A 
HETATM    8  C   LIG     1      -0.383   1.376   0.094  1.00  0.00     0.030 A 
ENDROOT
TORSDOF 0
