REMARK  2 active torsions:
REMARK  status: ('A' for Active; 'I' for Inactive)
REMARK    1  A    between atoms: C_2  and  C_4 
REMARK    2  A    between atoms: C_4  and  N_5 
REMARK       I    between atoms: N_5  and  C_6 
ROOT
HETATM    1  C   LIG     1       0.678  -1.114  -0.122  1.00  0.00     0.225 C 
ENDROOT
BRANCH   1   2
HETATM    2  C   LIG     1       1.863  -0.537  -0.826  1.00  0.00     0.211 C 
HETATM    3  O   LIG     1       1.737  -0.062  -1.986  1.00  0.00    -0.646 OA
HETATM    4  O   LIG     1       3.094  -0.484  -0.181  1.00  0.00    -0.646 OA
ENDBRANCH   1   2
BRANCH   1   5
HETATM    5  N   LIG     1      -0.039  -0.053   0.584  1.00  0.00    -0.228 NA
HETATM    6  C   LIG     1      -1.363   0.384   0.239  1.00  0.00     0.253 C 
HETATM    7  N   LIG     1      -1.987   1.415   1.007  1.00  0.00    -0.059 NA
HETATM    8  N   LIG     1      -1.990  -0.144  -0.765  1.00  0.00    -0.111 N 
ENDBRANCH   1   5
TORSDOF 2
