REMARK  2 active torsions:
REMARK  status: ('A' for Active; 'I' for Inactive)
REMARK    1  A    between atoms: C_2  and  C_14 
REMARK       I    between atoms: C_2  and  N_3 
REMARK       I    between atoms: N_3  and  C_4 
REMARK       I    between atoms: C_4  and  N_5 
REMARK    2  A    between atoms: N_5  and  C_6 
ROOT
HETATM    1  O   LIG     1      -2.969   2.775   1.082  1.00  0.00    -0.265 OA
HETATM    2  C   LIG     1      -2.224   1.909   0.550  1.00  0.00     0.287 C 
HETATM    3  N   LIG     1      -0.803   2.120   0.555  1.00  0.00    -0.152 NA
HETATM    4  C   LIG     1       0.161   1.058   0.615  1.00  0.00     0.371 C 
HETATM    5  N   LIG     1       1.555   1.359   0.454  1.00  0.00    -0.191 NA
HETATM    6  O   LIG     1      -0.210  -0.121   0.863  1.00  0.00    -0.242 OA
ENDROOT
BRANCH   2   7
HETATM    7  C   LIG     1      -2.838   0.724  -0.094  1.00  0.00     0.113 A 
HETATM    8  C   LIG     1      -2.361   0.251  -1.333  1.00  0.00     0.147 A 
HETATM    9  C   LIG     1      -2.951  -0.866  -1.934  1.00  0.00     0.030 A 
HETATM   10  F   LIG     1      -1.349   0.885  -1.978  1.00  0.00    -0.204 F 
HETATM   11  C   LIG     1      -4.022  -1.513  -1.315  1.00  0.00     0.005 A 
HETATM   12  C   LIG     1      -4.512  -1.043  -0.095  1.00  0.00     0.030 A 
HETATM   13  C   LIG     1      -3.929   0.073   0.514  1.00  0.00     0.147 A 
HETATM   14  F   LIG     1      -4.414   0.501   1.708  1.00  0.00    -0.204 F 
ENDBRANCH   2   7
BRANCH   5  15
HETATM   15  C   LIG     1       2.572   0.366   0.234  1.00  0.00     0.086 A 
HETATM   16  C   LIG     1       2.311  -0.802  -0.507  1.00  0.00     0.020 A 
HETATM   17  C   LIG     1       3.325  -1.739  -0.727  1.00  0.00     0.013 A 
HETATM   18  C   LIG     1       4.609  -1.516  -0.222  1.00  0.00     0.058 A 
HETATM   19  C   LIG     1       4.882  -0.347   0.496  1.00  0.00     0.013 A 
HETATM   20 CL   LIG     1       5.880  -2.692  -0.501  1.00  0.00    -0.082 Cl
HETATM   21  C   LIG     1       3.871   0.592   0.716  1.00  0.00     0.020 A 
ENDBRANCH   5  15
TORSDOF 2
