REMARK  1 active torsions:
REMARK  status: ('A' for Active; 'I' for Inactive)
REMARK    1  A    between atoms: C_9  and  C_10 
ROOT
HETATM    1 CL   LIG     1       3.483   2.554  -1.540  1.00  0.00    -0.082 Cl
HETATM    2  C   LIG     1       2.755   1.180  -0.716  1.00  0.00     0.069 A 
HETATM    3  C   LIG     1       3.545   0.175  -0.135  1.00  0.00     0.080 A 
HETATM    4 CL   LIG     1       5.304   0.278  -0.222  1.00  0.00    -0.081 Cl
HETATM    5  C   LIG     1       2.929  -0.910   0.517  1.00  0.00     0.080 A 
HETATM    6 CL   LIG     1       3.917  -2.173   1.254  1.00  0.00    -0.081 Cl
HETATM    7  C   LIG     1       1.524  -0.986   0.584  1.00  0.00     0.069 A 
HETATM    8 CL   LIG     1       0.752  -2.332   1.429  1.00  0.00    -0.082 Cl
HETATM    9  C   LIG     1       0.739   0.027  -0.003  1.00  0.00     0.013 A 
HETATM   10  C   LIG     1       1.363   1.101  -0.649  1.00  0.00     0.013 A 
ENDROOT
BRANCH   9  11
HETATM   11  C   LIG     1      -0.739  -0.027   0.035  1.00  0.00     0.013 A 
HETATM   12  C   LIG     1      -1.404  -0.981  -0.746  1.00  0.00     0.013 A 
HETATM   13  C   LIG     1      -2.798  -1.054  -0.745  1.00  0.00     0.069 A 
HETATM   14  C   LIG     1      -3.548  -0.165   0.041  1.00  0.00     0.080 A 
HETATM   15 CL   LIG     1      -3.578  -2.274  -1.745  1.00  0.00    -0.082 Cl
HETATM   16  C   LIG     1      -2.890   0.798   0.829  1.00  0.00     0.080 A 
HETATM   17 CL   LIG     1      -5.310  -0.260   0.038  1.00  0.00    -0.081 Cl
HETATM   18 CL   LIG     1      -3.829   1.914   1.823  1.00  0.00    -0.081 Cl
HETATM   19  C   LIG     1      -1.484   0.868   0.828  1.00  0.00     0.069 A 
HETATM   20 CL   LIG     1      -0.658   2.057   1.842  1.00  0.00    -0.082 Cl
ENDBRANCH   9  11
TORSDOF 1
