REMARK  1 active torsions:
REMARK  status: ('A' for Active; 'I' for Inactive)
REMARK    1  A    between atoms: C_8  and  C_9 
ROOT
HETATM    1 CL   LIG     1      -0.932  -0.723   2.620  1.00  0.00    -0.082 Cl
HETATM    2  C   LIG     1      -1.576  -0.169   1.078  1.00  0.00     0.058 A 
HETATM    3  C   LIG     1      -2.954   0.046   0.963  1.00  0.00     0.012 A 
HETATM    4  C   LIG     1      -3.498   0.515  -0.235  1.00  0.00     0.012 A 
HETATM    5  C   LIG     1      -2.666   0.778  -1.327  1.00  0.00     0.058 A 
HETATM    6 CL   LIG     1      -3.349   1.373  -2.828  1.00  0.00    -0.082 Cl
HETATM    7  C   LIG     1      -1.287   0.566  -1.221  1.00  0.00     0.012 A 
HETATM    8  C   LIG     1      -0.734   0.084  -0.025  1.00  0.00     0.012 A 
ENDROOT
BRANCH   8   9
HETATM    9  C   LIG     1       0.725  -0.132   0.059  1.00  0.00     0.012 A 
HETATM   10  C   LIG     1       1.579   0.980   0.124  1.00  0.00     0.012 A 
HETATM   11  C   LIG     1       2.964   0.802   0.205  1.00  0.00     0.058 A 
HETATM   12  C   LIG     1       3.503  -0.487   0.215  1.00  0.00     0.012 A 
HETATM   13 CL   LIG     1       4.024   2.197   0.294  1.00  0.00    -0.082 Cl
HETATM   14  C   LIG     1       2.661  -1.599   0.139  1.00  0.00     0.012 A 
HETATM   15  C   LIG     1       1.274  -1.431   0.058  1.00  0.00     0.058 A 
HETATM   16 CL   LIG     1       0.255  -2.861  -0.077  1.00  0.00    -0.082 Cl
ENDBRANCH   8   9
TORSDOF 1
