REMARK  1 active torsions:
REMARK  status: ('A' for Active; 'I' for Inactive)
REMARK    1  A    between atoms: C_6  and  C_7 
ROOT
HETATM    1 CL   LIG     1       5.191  -0.963   0.560  1.00  0.00    -0.082 Cl
HETATM    2  C   LIG     1       3.472  -0.644   0.416  1.00  0.00     0.059 A 
HETATM    3  C   LIG     1       2.676  -0.577   1.562  1.00  0.00     0.023 A 
HETATM    4  C   LIG     1       1.304  -0.324   1.456  1.00  0.00     0.059 A 
HETATM    5 CL   LIG     1       0.357  -0.215   2.937  1.00  0.00    -0.082 Cl
HETATM    6  C   LIG     1       0.717  -0.133   0.185  1.00  0.00     0.021 A 
HETATM    7  C   LIG     1       1.530  -0.202  -0.967  1.00  0.00     0.059 A 
HETATM    8 CL   LIG     1       0.858  -0.010  -2.584  1.00  0.00    -0.082 Cl
HETATM    9  C   LIG     1       2.900  -0.457  -0.844  1.00  0.00     0.023 A 
ENDROOT
BRANCH   6  10
HETATM   10  C   LIG     1      -0.731   0.136   0.064  1.00  0.00     0.002 A 
HETATM   11  C   LIG     1      -1.184   1.395  -0.361  1.00  0.00     0.000 A 
HETATM   12  C   LIG     1      -2.555   1.647  -0.475  1.00  0.00     0.000 A 
HETATM   13  C   LIG     1      -3.479   0.645  -0.166  1.00  0.00     0.000 A 
HETATM   14  C   LIG     1      -3.035  -0.610   0.258  1.00  0.00     0.000 A 
HETATM   15  C   LIG     1      -1.665  -0.867   0.373  1.00  0.00     0.000 A 
ENDBRANCH   6  10
TORSDOF 1
