REMARK  2 active torsions:
REMARK  status: ('A' for Active; 'I' for Inactive)
REMARK    1  A    between atoms: C_23  and  O_24 
REMARK    2  A    between atoms: C_26  and  O_27 
ROOT
HETATM    1  O   LIG     1       1.063   3.522   1.462  1.00  0.00    -0.272 OA
HETATM    2  C   LIG     1       0.202   2.622   1.277  1.00  0.00     0.240 C 
HETATM    3  C   LIG     1      -1.137   2.647   2.040  1.00  0.00     0.118 C 
HETATM    4  N   LIG     1       0.466   1.517   0.391  1.00  0.00    -0.301 N 
HETATM    5  C   LIG     1      -0.401   0.397   0.549  1.00  0.00     0.096 C 
HETATM    6  C   LIG     1      -0.067  -0.669  -0.511  1.00  0.00     0.071 C 
HETATM    7  C   LIG     1      -0.418  -0.299  -1.966  1.00  0.00     0.043 C 
HETATM    8  C   LIG     1      -1.726  -0.999  -2.319  1.00  0.00     0.251 C 
HETATM    9  C   LIG     1      -0.965  -1.941  -0.231  1.00  0.00     0.225 C 
HETATM   10  N   LIG     1      -2.057  -1.968  -1.263  1.00  0.00     0.139 N 
HETATM   11  C   LIG     1      -3.493  -1.840  -0.797  1.00  0.00     0.272 C 
HETATM   12  C   LIG     1      -1.623  -1.895   1.167  1.00  0.00     0.038 C 
HETATM   13  C   LIG     1      -2.518  -0.606   1.205  1.00  0.00     0.026 C 
HETATM   14  C   LIG     1      -3.687  -0.810   0.330  1.00  0.00    -0.013 C 
HETATM   15  C   LIG     1      -4.640   0.161   0.294  1.00  0.00    -0.001 C 
HETATM   16  C   LIG     1      -4.611   1.509   1.074  1.00  0.00     0.168 C 
HETATM   17  O   LIG     1      -3.490   1.787   1.937  1.00  0.00    -0.351 OA
HETATM   18  C   LIG     1      -2.288   2.005   1.201  1.00  0.00     0.127 C 
HETATM   19  C   LIG     1      -1.852   0.674   0.580  1.00  0.00     0.053 C 
HETATM   20  C   LIG     1       1.679   0.819   0.046  1.00  0.00     0.060 A 
HETATM   21  C   LIG     1       1.423  -0.501  -0.362  1.00  0.00    -0.001 A 
HETATM   22  C   LIG     1       2.455  -1.359  -0.724  1.00  0.00     0.024 A 
HETATM   23  C   LIG     1       3.788  -0.897  -0.614  1.00  0.00     0.116 A 
HETATM   24  C   LIG     1       4.052   0.422  -0.167  1.00  0.00     0.118 A 
HETATM   25  C   LIG     1       2.983   1.289   0.166  1.00  0.00     0.043 A 
ENDROOT
BRANCH  23  26
HETATM   26  O   LIG     1       4.881  -1.714  -0.944  1.00  0.00    -0.326 OA
HETATM   27  C   LIG     1       4.772  -3.057  -1.406  1.00  0.00     0.181 C 
ENDBRANCH  23  26
BRANCH  24  28
HETATM   28  O   LIG     1       5.391   0.831  -0.071  1.00  0.00    -0.326 OA
HETATM   29  C   LIG     1       5.811   2.121   0.361  1.00  0.00     0.181 C 
ENDBRANCH  24  28
TORSDOF 2
