REMARK  2 active torsions:
REMARK  status: ('A' for Active; 'I' for Inactive)
REMARK    1  A    between atoms: C_6  and  C_7 
REMARK    2  A    between atoms: C_6  and  C_9 
ROOT
HETATM    1  O   LIG     1      -4.449   2.882   0.024  1.00  0.00    -0.242 OA
HETATM    2  C   LIG     1      -3.491   2.067  -0.058  1.00  0.00     0.373 C 
HETATM    3  N   LIG     1      -3.058   1.359   1.097  1.00  0.00    -0.155 NA
HETATM    4  N   LIG     1      -2.829   1.869  -1.302  1.00  0.00    -0.155 NA
HETATM    5  C   LIG     1      -1.757   0.932  -1.431  1.00  0.00     0.271 C 
HETATM    6  C   LIG     1      -1.375  -0.020  -0.304  1.00  0.00     0.161 C 
HETATM    7  C   LIG     1      -1.990   0.410   1.028  1.00  0.00     0.271 C 
HETATM    8  O   LIG     1      -1.580  -0.113   2.100  1.00  0.00    -0.269 OA
HETATM    9  O   LIG     1      -1.155   0.854  -2.537  1.00  0.00    -0.269 OA
ENDROOT
BRANCH   6  10
HETATM   10  C   LIG     1      -1.970  -1.417  -0.672  1.00  0.00     0.022 C 
HETATM   11  C   LIG     1      -1.640  -2.549   0.311  1.00  0.00     0.001 C 
ENDBRANCH   6  10
BRANCH   6  12
HETATM   12  C   LIG     1       0.167   0.011  -0.191  1.00  0.00    -0.032 C 
HETATM   13  C   LIG     1       0.829   1.222   0.493  1.00  0.00     0.023 C 
HETATM   14  C   LIG     1       2.378   1.139   0.534  1.00  0.00     0.004 C 
HETATM   15  C   LIG     1       2.838   0.009   1.468  1.00  0.00     0.001 C 
HETATM   16  C   LIG     1       2.873   0.693  -0.833  1.00  0.00     0.005 C 
HETATM   17  C   LIG     1       2.922  -1.238   0.581  1.00  0.00     0.004 C 
HETATM   18  C   LIG     1       2.469  -0.771  -0.806  1.00  0.00     0.021 C 
HETATM   19  C   LIG     1       0.957  -0.851  -0.893  1.00  0.00    -0.034 C 
ENDBRANCH   6  12
TORSDOF 2
