REMARK  5 active torsions:
REMARK  status: ('A' for Active; 'I' for Inactive)
REMARK    1  A    between atoms: C_2  and  C_3 
REMARK    2  A    between atoms: C_3  and  C_4 
REMARK    3  A    between atoms: C_4  and  C_5 
REMARK    4  A    between atoms: C_5  and  C_6 
REMARK    5  A    between atoms: C_9  and  C_10 
ROOT
HETATM    1  C   LIG     1      -1.147  -1.385   0.494  1.00  0.00     0.035 A 
HETATM    2  C   LIG     1      -1.190   0.015   0.629  1.00  0.00     0.003 A 
HETATM    3  C   LIG     1      -0.027   0.779   0.500  1.00  0.00     0.000 A 
HETATM    4  C   LIG     1       1.209   0.163   0.243  1.00  0.00     0.000 A 
HETATM    5  C   LIG     1       1.257  -1.236   0.122  1.00  0.00     0.000 A 
HETATM    6  C   LIG     1       0.094  -2.000   0.249  1.00  0.00     0.003 A 
ENDROOT
BRANCH   1   7
HETATM    7  C   LIG     1      -2.369  -2.222   0.619  1.00  0.00     0.174 C 
HETATM    8  O   LIG     1      -2.251  -3.431   0.958  1.00  0.00    -0.291 OA
BRANCH   7   9
HETATM    9  C   LIG     1      -3.757  -1.697   0.337  1.00  0.00     0.080 C 
BRANCH   9  10
HETATM   10  C   LIG     1      -4.036  -1.573  -1.167  1.00  0.00     0.106 C 
BRANCH  10  11
HETATM   11  C   LIG     1      -3.293  -0.432  -1.791  1.00  0.00     0.186 C 
HETATM   12  O   LIG     1      -3.710   0.875  -1.559  1.00  0.00    -0.647 OA
HETATM   13  O   LIG     1      -2.280  -0.652  -2.507  1.00  0.00    -0.647 OA
ENDBRANCH  10  11
ENDBRANCH   9  10
ENDBRANCH   7   9
ENDBRANCH   1   7
BRANCH   4  14
HETATM   14  C   LIG     1       2.444   0.977   0.103  1.00  0.00     0.000 A 
HETATM   15  C   LIG     1       2.420   2.200  -0.594  1.00  0.00     0.000 A 
HETATM   16  C   LIG     1       3.584   2.964  -0.725  1.00  0.00     0.000 A 
HETATM   17  C   LIG     1       4.782   2.518  -0.162  1.00  0.00     0.000 A 
HETATM   18  C   LIG     1       4.819   1.307   0.532  1.00  0.00     0.000 A 
HETATM   19  C   LIG     1       3.658   0.538   0.666  1.00  0.00     0.000 A 
ENDBRANCH   4  14
TORSDOF 5
