REMARK  0 active torsions:
REMARK  status: ('A' for Active; 'I' for Inactive)
ROOT
HETATM    1  C   LIG     1       2.132   0.821  -1.933  1.00  0.00     0.000 C 
HETATM    2  C   LIG     1       1.603   0.242  -0.588  1.00  0.00     0.000 C 
HETATM    3  C   LIG     1       0.010   0.129  -0.738  1.00  0.00     0.000 C 
HETATM    4  C   LIG     1      -0.485  -1.297  -1.082  1.00  0.00     0.000 C 
HETATM    5  C   LIG     1      -1.982  -1.319  -1.365  1.00  0.00     0.007 C 
HETATM    6  C   LIG     1      -0.776   0.735   0.459  1.00  0.00     0.000 C 
HETATM    7  C   LIG     1      -0.140   0.288   1.780  1.00  0.00     0.000 C 
HETATM    8  C   LIG     1       1.280   0.855   1.934  1.00  0.00     0.000 C 
HETATM    9  C   LIG     1       1.986   1.209   0.591  1.00  0.00     0.000 C 
HETATM   10  C   LIG     1       3.517   1.317   0.809  1.00  0.00     0.000 C 
HETATM   11  C   LIG     1       4.192  -0.050   0.998  1.00  0.00     0.000 C 
HETATM   12  C   LIG     1       3.823  -1.035  -0.112  1.00  0.00     0.000 C 
HETATM   13  C   LIG     1       2.301  -1.135  -0.323  1.00  0.00     0.000 C 
HETATM   14  C   LIG     1      -2.321   0.499   0.426  1.00  0.00     0.007 C 
HETATM   15  C   LIG     1      -3.071   1.581  -0.372  1.00  0.00     0.008 C 
HETATM   16  C   LIG     1      -4.427   0.977  -0.719  1.00  0.00     0.065 C 
HETATM   17  C   LIG     1      -2.818  -0.851  -0.153  1.00  0.00     0.051 C 
HETATM   18  C   LIG     1      -2.916  -1.941   0.935  1.00  0.00     0.007 C 
HETATM   19  C   LIG     1      -4.186  -0.486  -0.645  1.00  0.00     0.150 C 
HETATM   20  O   LIG     1      -5.020  -1.309  -0.994  1.00  0.00    -0.296 OA
ENDROOT
TORSDOF 0
