REMARK  7 active torsions:
REMARK  status: ('A' for Active; 'I' for Inactive)
REMARK    1  A    between atoms: C_2  and  N_3 
REMARK    2  A    between atoms: N_3  and  C_19 
REMARK    3  A    between atoms: N_3  and  C_4 
REMARK    4  A    between atoms: C_4  and  C_5 
REMARK    5  A    between atoms: C_5  and  N_6 
REMARK       I    between atoms: N_6  and  C_7 
REMARK    6  A    between atoms: C_7  and  C_8 
REMARK    7  A    between atoms: C_9  and  O_10 
ROOT
HETATM    1  C   LIG     1       2.524   0.272  -0.190  1.00  0.00     0.081 A 
HETATM    2  C   LIG     1       3.644  -0.570  -0.361  1.00  0.00     0.100 A 
HETATM    3  C   LIG     1       4.920  -0.106   0.014  1.00  0.00     0.039 A 
HETATM    4  C   LIG     1       5.092   1.174   0.557  1.00  0.00     0.083 A 
HETATM    5  N   LIG     1       6.406   1.608   0.929  1.00  0.00    -0.100 NA
HETATM    6  C   LIG     1       3.972   2.009   0.724  1.00  0.00     0.071 A 
HETATM    7 CL   LIG     1       4.118   3.632   1.388  1.00  0.00    -0.081 Cl
HETATM    8  C   LIG     1       2.704   1.557   0.350  1.00  0.00     0.019 A 
ENDROOT
BRANCH   1   9
HETATM    9  C   LIG     1       1.165  -0.172  -0.590  1.00  0.00     0.277 C 
HETATM   10  N   LIG     1       0.007   0.257   0.141  1.00  0.00    -0.232 NA
HETATM   11  O   LIG     1       1.026  -0.937  -1.584  1.00  0.00    -0.266 OA
BRANCH  10  12
HETATM   12  C   LIG     1      -1.344  -0.060  -0.321  1.00  0.00     0.164 C 
BRANCH  12  13
HETATM   13  C   LIG     1      -2.401   0.508   0.647  1.00  0.00     0.276 C 
BRANCH  13  14
HETATM   14  N   LIG     1      -3.789   0.068   0.358  1.00  0.00     0.139 N 
BRANCH  14  15
HETATM   15  C   LIG     1      -3.978  -1.382   0.595  1.00  0.00     0.250 C 
HETATM   16  C   LIG     1      -5.352  -1.645   1.202  1.00  0.00     0.037 C 
ENDBRANCH  14  15
BRANCH  14  17
HETATM   17  C   LIG     1      -4.288   0.470  -0.978  1.00  0.00     0.250 C 
HETATM   18  C   LIG     1      -4.405   1.989  -1.111  1.00  0.00     0.037 C 
ENDBRANCH  14  17
ENDBRANCH  13  14
ENDBRANCH  12  13
ENDBRANCH  10  12
ENDBRANCH   1   9
BRANCH   2  19
HETATM   19  O   LIG     1       3.457  -1.859  -0.889  1.00  0.00    -0.328 OA
HETATM   20  C   LIG     1       4.499  -2.805  -1.108  1.00  0.00     0.181 C 
ENDBRANCH   2  19
TORSDOF 7
