REMARK  1 active torsions:
REMARK  status: ('A' for Active; 'I' for Inactive)
REMARK    1  A    between atoms: C_1  and  C_2 
ROOT
HETATM    1  C   LIG     1      -0.741   0.006   0.032  1.00  0.00     0.099 A 
HETATM    2  C   LIG     1      -1.501  -1.024  -0.551  1.00  0.00     0.021 A 
HETATM    3  C   LIG     1      -2.895  -0.981  -0.472  1.00  0.00     0.003 A 
HETATM    4  C   LIG     1      -3.522   0.079   0.184  1.00  0.00     0.021 A 
HETATM    5  C   LIG     1      -2.742   1.085   0.753  1.00  0.00     0.099 A 
HETATM    6  N   LIG     1      -1.386   1.028   0.666  1.00  0.00    -0.242 NA
ENDROOT
BRANCH   1   7
HETATM    7  C   LIG     1       0.741  -0.006  -0.032  1.00  0.00     0.099 A 
HETATM    8  C   LIG     1       1.501   1.024   0.551  1.00  0.00     0.021 A 
HETATM    9  C   LIG     1       2.895   0.981   0.472  1.00  0.00     0.003 A 
HETATM   10  C   LIG     1       3.522  -0.079  -0.184  1.00  0.00     0.021 A 
HETATM   11  C   LIG     1       2.742  -1.085  -0.753  1.00  0.00     0.099 A 
HETATM   12  N   LIG     1       1.386  -1.028  -0.666  1.00  0.00    -0.242 NA
ENDBRANCH   1   7
TORSDOF 1
