REMARK  14 active torsions:
REMARK  status: ('A' for Active; 'I' for Inactive)
REMARK    1  A    between atoms: C_2  and  C_3 
REMARK    2  A    between atoms: C_3  and  C_4 
REMARK    3  A    between atoms: C_4  and  C_5 
REMARK    4  A    between atoms: C_5  and  C_6 
REMARK    5  A    between atoms: C_6  and  C_7 
REMARK    6  A    between atoms: C_7  and  C_8 
REMARK    7  A    between atoms: C_8  and  C_9 
REMARK    8  A    between atoms: C_9  and  C_10 
REMARK    9  A    between atoms: C_10  and  C_11 
REMARK   10  A    between atoms: C_11  and  C_12 
REMARK   11  A    between atoms: C_12  and  C_13 
REMARK   12  A    between atoms: C_13  and  C_14 
REMARK   13  A    between atoms: C_14  and  C_15 
REMARK   14  A    between atoms: C_15  and  C_16 
ROOT
HETATM    1  C   LIG     1       0.335  -0.934   0.244  1.00  0.00     0.000 C 
ENDROOT
BRANCH   1   2
HETATM    2  C   LIG     1      -0.664  -1.562   1.229  1.00  0.00     0.000 C 
BRANCH   2   3
HETATM    3  C   LIG     1      -1.596  -0.521   1.876  1.00  0.00     0.000 C 
BRANCH   3   4
HETATM    4  C   LIG     1      -2.683   0.028   0.932  1.00  0.00     0.000 C 
BRANCH   4   5
HETATM    5  C   LIG     1      -3.838  -0.967   0.718  1.00  0.00     0.000 C 
BRANCH   5   6
HETATM    6  C   LIG     1      -4.857  -0.472  -0.320  1.00  0.00     0.000 C 
BRANCH   6   7
HETATM    7  C   LIG     1      -5.669   0.738   0.169  1.00  0.00     0.000 C 
BRANCH   7   8
HETATM    8  C   LIG     1      -6.794   1.078  -0.816  1.00  0.00     0.000 C 
HETATM    9  C   LIG     1      -7.586   2.298  -0.352  1.00  0.00     0.000 C 
ENDBRANCH   7   8
ENDBRANCH   6   7
ENDBRANCH   5   6
ENDBRANCH   4   5
ENDBRANCH   3   4
ENDBRANCH   2   3
ENDBRANCH   1   2
BRANCH   1  10
HETATM   10  C   LIG     1       1.312  -1.991  -0.294  1.00  0.00     0.000 C 
BRANCH  10  11
HETATM   11  C   LIG     1       2.258  -1.427  -1.367  1.00  0.00     0.000 C 
BRANCH  11  12
HETATM   12  C   LIG     1       3.342  -0.513  -0.776  1.00  0.00     0.000 C 
BRANCH  12  13
HETATM   13  C   LIG     1       4.308  -0.031  -1.870  1.00  0.00     0.000 C 
BRANCH  13  14
HETATM   14  C   LIG     1       5.334   0.985  -1.344  1.00  0.00     0.003 C 
BRANCH  14  15
HETATM   15  C   LIG     1       6.416   0.332  -0.469  1.00  0.00     0.036 C 
BRANCH  15  16
HETATM   16  C   LIG     1       7.465   1.353  -0.014  1.00  0.00     0.182 C 
HETATM   17  O   LIG     1       8.172   1.871  -1.109  1.00  0.00    -0.221 OA
ENDBRANCH  15  16
ENDBRANCH  14  15
ENDBRANCH  13  14
ENDBRANCH  12  13
ENDBRANCH  11  12
ENDBRANCH  10  11
ENDBRANCH   1  10
TORSDOF 14
