REMARK  0 active torsions:
REMARK  status: ('A' for Active; 'I' for Inactive)
ROOT
HETATM    1  F   LIG     1       2.586  -0.918  -0.017  1.00  0.00    -0.204 F 
HETATM    2  C   LIG     1       1.312  -0.455  -0.009  1.00  0.00     0.142 A 
HETATM    3  C   LIG     1       0.240  -1.355   0.008  1.00  0.00     0.059 A 
HETATM    4  C   LIG     1      -1.075  -0.878   0.017  1.00  0.00     0.142 A 
HETATM    5  F   LIG     1      -2.113  -1.750   0.033  1.00  0.00    -0.204 F 
HETATM    6  C   LIG     1      -1.319   0.500   0.009  1.00  0.00     0.030 A 
HETATM    7  C   LIG     1      -0.248   1.400  -0.008  1.00  0.00     0.005 A 
HETATM    8  C   LIG     1       1.067   0.922  -0.017  1.00  0.00     0.030 A 
ENDROOT
TORSDOF 0
