REMARK  1 active torsions:
REMARK  status: ('A' for Active; 'I' for Inactive)
REMARK    1  A    between atoms: C_2  and  C_5 
ROOT
HETATM    1  F   LIG     1      -1.561  -0.114   1.193  1.00  0.00    -0.168 F 
HETATM    2  C   LIG     1      -0.981  -0.852   0.176  1.00  0.00     0.425 C 
HETATM    3  F   LIG     1      -0.408  -1.990   0.716  1.00  0.00    -0.168 F 
HETATM    4  F   LIG     1      -1.965  -1.233  -0.718  1.00  0.00    -0.168 F 
ENDROOT
BRANCH   2   5
HETATM    5  C   LIG     1       0.087  -0.022  -0.556  1.00  0.00     0.246 C 
HETATM    6  C   LIG     1       1.202   0.446   0.389  1.00  0.00     0.045 C 
HETATM    7  O   LIG     1      -0.497   1.076  -1.212  1.00  0.00    -0.214 OA
ENDBRANCH   2   5
TORSDOF 1
