REMARK  10 active torsions:
REMARK  status: ('A' for Active; 'I' for Inactive)
REMARK    1  A    between atoms: C_2  and  C_3 
REMARK    2  A    between atoms: C_3  and  C_4 
REMARK    3  A    between atoms: C_4  and  C_5 
REMARK       I    between atoms: C_5  and  N_6 
REMARK    4  A    between atoms: N_6  and  C_7 
REMARK    5  A    between atoms: C_10  and  O_26 
REMARK    6  A    between atoms: C_12  and  O_13 
REMARK    7  A    between atoms: O_13  and  C_14 
REMARK    8  A    between atoms: C_16  and  C_23 
REMARK    9  A    between atoms: O_26  and  C_27 
REMARK   10  A    between atoms: C_29  and  C_36 
ROOT
HETATM    1  C   LIG     1      -0.973   0.986  -0.290  1.00  0.00     0.138 C 
HETATM    2  C   LIG     1      -0.137   2.106  -0.959  1.00  0.00     0.069 C 
HETATM    3  C   LIG     1       0.879   1.548  -1.968  1.00  0.00     0.333 C 
HETATM    4  C   LIG     1       1.889   0.582  -1.284  1.00  0.00     0.188 C 
HETATM    5  C   LIG     1       1.236  -0.290  -0.164  1.00  0.00     0.210 C 
HETATM    6  C   LIG     1      -0.296  -0.410  -0.328  1.00  0.00     0.173 C 
HETATM    7  O   LIG     1       1.567   0.149   1.133  1.00  0.00    -0.218 OA
HETATM    8  N   LIG     1       1.584   2.648  -2.628  1.00  0.00     0.619 N 
ENDROOT
BRANCH   4   9
HETATM    9  O   LIG     1       2.985   1.314  -0.744  1.00  0.00    -0.327 OA
BRANCH   9  10
HETATM   10  C   LIG     1       4.211   0.969  -1.373  1.00  0.00     0.270 C 
HETATM   11  C   LIG     1       5.289   2.030  -1.052  1.00  0.00     0.241 C 
HETATM   12  C   LIG     1       5.733   1.931   0.422  1.00  0.00     0.220 C 
HETATM   13  O   LIG     1       6.402   1.852  -1.894  1.00  0.00    -0.215 OA
HETATM   14  C   LIG     1       6.089   0.481   0.785  1.00  0.00     0.214 C 
HETATM   15  O   LIG     1       6.839   2.764   0.660  1.00  0.00    -0.218 OA
HETATM   16  C   LIG     1       4.908  -0.431   0.388  1.00  0.00     0.190 C 
HETATM   17  O   LIG     1       7.260   0.075   0.121  1.00  0.00    -0.218 OA
HETATM   18  O   LIG     1       4.642  -0.336  -1.004  1.00  0.00    -0.327 OA
BRANCH  16  19
HETATM   19  C   LIG     1       5.167  -1.904   0.743  1.00  0.00     0.370 C 
HETATM   20  N   LIG     1       5.308  -2.078   2.188  1.00  0.00     0.621 N 
ENDBRANCH  16  19
ENDBRANCH   9  10
ENDBRANCH   4   9
BRANCH   6  21
HETATM   21  O   LIG     1      -0.828  -1.189   0.733  1.00  0.00    -0.327 OA
BRANCH  21  22
HETATM   22  C   LIG     1      -0.947  -2.557   0.378  1.00  0.00     0.270 C 
HETATM   23  C   LIG     1      -1.049  -3.407   1.659  1.00  0.00     0.248 C 
HETATM   24  C   LIG     1      -2.268  -2.947   2.492  1.00  0.00     0.369 C 
HETATM   25  O   LIG     1      -1.137  -4.770   1.331  1.00  0.00    -0.216 OA
HETATM   26  C   LIG     1      -3.419  -2.403   1.601  1.00  0.00     0.221 C 
HETATM   27  N   LIG     1      -2.721  -3.981   3.433  1.00  0.00     0.622 N 
HETATM   28  C   LIG     1      -3.333  -2.888   0.116  1.00  0.00     0.183 C 
HETATM   29  O   LIG     1      -4.670  -2.708   2.171  1.00  0.00    -0.218 OA
HETATM   30  O   LIG     1      -2.051  -2.745  -0.502  1.00  0.00    -0.326 OA
BRANCH  28  31
HETATM   31  C   LIG     1      -3.832  -4.338  -0.107  1.00  0.00     0.214 C 
HETATM   32  O   LIG     1      -5.210  -4.381  -0.359  1.00  0.00    -0.218 OA
ENDBRANCH  28  31
ENDBRANCH  21  22
ENDBRANCH   6  21
BRANCH   1  33
HETATM   33  N   LIG     1      -2.295   0.911  -0.917  1.00  0.00    -0.235 NA
HETATM   34  C   LIG     1      -3.445   1.562  -0.346  1.00  0.00     0.282 C 
HETATM   35  O   LIG     1      -3.494   1.787   0.895  1.00  0.00    -0.268 OA
BRANCH  34  36
HETATM   36  C   LIG     1      -4.581   2.000  -1.233  1.00  0.00     0.234 C 
HETATM   37  O   LIG     1      -5.806   1.693  -0.620  1.00  0.00    -0.213 OA
BRANCH  36  38
HETATM   38  C   LIG     1      -4.485   3.504  -1.579  1.00  0.00     0.084 C 
BRANCH  38  39
HETATM   39  C   LIG     1      -4.696   4.455  -0.390  1.00  0.00     0.342 C 
HETATM   40  N   LIG     1      -6.080   4.406   0.083  1.00  0.00     0.618 N 
ENDBRANCH  38  39
ENDBRANCH  36  38
ENDBRANCH  34  36
ENDBRANCH   1  33
TORSDOF 10
