REMARK  2 active torsions:
REMARK  status: ('A' for Active; 'I' for Inactive)
REMARK    1  A    between atoms: C_2  and  N_3 
REMARK       I    between atoms: N_3  and  C_4 
REMARK       I    between atoms: C_4  and  N_5 
REMARK    2  A    between atoms: N_5  and  C_6 
ROOT
HETATM    1  C   LIG     1       3.253   1.000  -0.920  1.00  0.00     0.039 C 
HETATM    2  C   LIG     1       3.022   0.336   0.440  1.00  0.00     0.150 C 
HETATM    3  C   LIG     1       3.389  -1.089   0.400  1.00  0.00    -0.056 C 
HETATM    4  C   LIG     1       3.689  -2.257   0.368  1.00  0.00    -0.012 C 
ENDROOT
BRANCH   2   5
HETATM    5  N   LIG     1       1.622   0.507   0.885  1.00  0.00    -0.290 N 
HETATM    6  C   LIG     1       1.339   1.383   2.028  1.00  0.00     0.131 C 
HETATM    7  C   LIG     1       0.522  -0.132   0.189  1.00  0.00     0.347 C 
HETATM    8  N   LIG     1      -0.832   0.016   0.654  1.00  0.00    -0.193 NA
HETATM    9  O   LIG     1       0.751  -0.855  -0.819  1.00  0.00    -0.245 OA
BRANCH   8  10
HETATM   10  C   LIG     1      -1.987  -0.218  -0.171  1.00  0.00     0.086 A 
HETATM   11  C   LIG     1      -1.968   0.051  -1.553  1.00  0.00     0.020 A 
HETATM   12  C   LIG     1      -3.111  -0.163  -2.329  1.00  0.00     0.013 A 
HETATM   13  C   LIG     1      -4.285  -0.633  -1.734  1.00  0.00     0.058 A 
HETATM   14  C   LIG     1      -4.319  -0.882  -0.359  1.00  0.00     0.013 A 
HETATM   15 CL   LIG     1      -5.719  -0.898  -2.710  1.00  0.00    -0.082 Cl
HETATM   16  C   LIG     1      -3.178  -0.669   0.420  1.00  0.00     0.020 A 
ENDBRANCH   8  10
ENDBRANCH   2   5
TORSDOF 2
