REMARK  1 active torsions:
REMARK  status: ('A' for Active; 'I' for Inactive)
REMARK    1  A    between atoms: C_4  and  C_5 
ROOT
HETATM    1 CL   LIG     1       3.630   1.785  -2.155  1.00  0.00    -0.082 Cl
HETATM    2  C   LIG     1       2.797   0.787  -0.977  1.00  0.00     0.058 A 
HETATM    3  C   LIG     1       1.400   0.773  -0.935  1.00  0.00     0.012 A 
HETATM    4  C   LIG     1       0.725  -0.023   0.005  1.00  0.00     0.012 A 
HETATM    5  C   LIG     1       1.470  -0.808   0.910  1.00  0.00     0.058 A 
HETATM    6 CL   LIG     1       0.685  -1.854   2.088  1.00  0.00    -0.082 Cl
HETATM    7  C   LIG     1       2.869  -0.787   0.861  1.00  0.00     0.012 A 
HETATM    8  C   LIG     1       3.531   0.008  -0.078  1.00  0.00     0.012 A 
ENDROOT
BRANCH   4   9
HETATM    9  C   LIG     1      -0.753  -0.009   0.037  1.00  0.00     0.011 A 
HETATM   10  C   LIG     1      -1.412   0.558   1.141  1.00  0.00     0.001 A 
HETATM   11  C   LIG     1      -2.808   0.597   1.187  1.00  0.00     0.000 A 
HETATM   12  C   LIG     1      -3.558   0.073   0.132  1.00  0.00     0.001 A 
HETATM   13  C   LIG     1      -2.914  -0.493  -0.971  1.00  0.00     0.011 A 
HETATM   14  C   LIG     1      -1.515  -0.537  -1.027  1.00  0.00     0.058 A 
HETATM   15 CL   LIG     1      -0.751  -1.291  -2.423  1.00  0.00    -0.082 Cl
ENDBRANCH   4   9
TORSDOF 1
