REMARK  5 active torsions:
REMARK  status: ('A' for Active; 'I' for Inactive)
REMARK    1  A    between atoms: C_2  and  C_10 
REMARK       I    between atoms: C_2  and  N_3 
REMARK    2  A    between atoms: N_3  and  C_4 
REMARK    3  A    between atoms: N_3  and  C_7 
REMARK    4  A    between atoms: C_4  and  C_5 
REMARK    5  A    between atoms: C_7  and  C_8 
ROOT
HETATM    1  O   LIG     1      -1.102   1.166   1.556  1.00  0.00    -0.270 OA
HETATM    2  C   LIG     1      -0.337   1.188   0.553  1.00  0.00     0.265 C 
HETATM    3  N   LIG     1      -0.036  -0.055  -0.133  1.00  0.00    -0.310 N 
ENDROOT
BRANCH   3   4
HETATM    4  C   LIG     1       0.984  -0.154  -1.191  1.00  0.00     0.131 C 
BRANCH   4   5
HETATM    5  C   LIG     1       2.248  -0.770  -0.657  1.00  0.00    -0.002 C 
HETATM    6  C   LIG     1       2.983  -0.173   0.286  1.00  0.00    -0.003 C 
ENDBRANCH   4   5
ENDBRANCH   3   4
BRANCH   3   7
HETATM    7  C   LIG     1      -0.709  -1.290   0.295  1.00  0.00     0.131 C 
BRANCH   7   8
HETATM    8  C   LIG     1      -2.151  -1.264  -0.134  1.00  0.00    -0.002 C 
HETATM    9  C   LIG     1      -3.152  -1.348   0.746  1.00  0.00    -0.003 C 
ENDBRANCH   7   8
ENDBRANCH   3   7
BRANCH   2  10
HETATM   10  C   LIG     1       0.171   2.522   0.063  1.00  0.00     0.237 C 
HETATM   11 CL   LIG     1      -0.740   3.009  -1.387  1.00  0.00    -0.087 Cl
HETATM   12 CL   LIG     1      -0.006   3.797   1.303  1.00  0.00    -0.087 Cl
ENDBRANCH   2  10
TORSDOF 5
