REMARK  2 active torsions:
REMARK  status: ('A' for Active; 'I' for Inactive)
REMARK    1  A    between atoms: C_2  and  C_3 
REMARK    2  A    between atoms: C_3  and  N_4 
ROOT
HETATM    1  N   LIG     1      -0.764   0.707  -0.549  1.00  0.00    -0.279 N 
HETATM    2  C   LIG     1      -0.848   2.066  -0.590  1.00  0.00     0.293 A 
HETATM    3  S   LIG     1       0.556   2.834  -0.074  1.00  0.00    -0.026 SA
HETATM    4  C   LIG     1       1.320   1.372   0.224  1.00  0.00     0.051 A 
HETATM    5  C   LIG     1       0.470   0.306  -0.084  1.00  0.00     0.080 A 
HETATM    6  C   LIG     1       0.951  -1.020   0.103  1.00  0.00     0.074 A 
HETATM    7 CL   LIG     1       0.042  -2.486  -0.240  1.00  0.00    -0.081 Cl
HETATM    8  C   LIG     1       2.257  -1.202   0.596  1.00  0.00     0.013 A 
HETATM    9  C   LIG     1       3.079  -0.105   0.896  1.00  0.00     0.002 A 
HETATM   10  C   LIG     1       2.611   1.196   0.710  1.00  0.00     0.008 A 
HETATM   11  O   LIG     1      -1.875   2.693  -0.967  1.00  0.00    -0.259 OA
ENDROOT
BRANCH   1  12
HETATM   12  C   LIG     1      -1.893  -0.154  -0.941  1.00  0.00     0.207 C 
BRANCH  12  13
HETATM   13  C   LIG     1      -2.580  -0.732   0.263  1.00  0.00     0.210 C 
HETATM   14  O   LIG     1      -3.226  -1.961   0.182  1.00  0.00    -0.646 OA
HETATM   15  O   LIG     1      -2.630  -0.079   1.339  1.00  0.00    -0.646 OA
ENDBRANCH  12  13
ENDBRANCH   1  12
TORSDOF 2
