REMARK  0 active torsions:
REMARK  status: ('A' for Active; 'I' for Inactive)
ROOT
HETATM    1  C   LIG     1      -1.436  -1.069  -1.069  1.00  0.00     0.004 C 
HETATM    2  C   LIG     1      -1.718  -0.117   0.115  1.00  0.00     0.022 C 
HETATM    3  C   LIG     1      -2.270   1.213  -0.424  1.00  0.00    -0.042 C 
HETATM    4  C   LIG     1      -1.363   2.412  -0.562  1.00  0.00     0.022 C 
HETATM    5  C   LIG     1       0.060   1.991  -0.904  1.00  0.00     0.005 C 
HETATM    6  C   LIG     1      -3.583   1.393  -0.651  1.00  0.00     0.029 C 
HETATM    7  C   LIG     1      -4.578   0.366  -0.328  1.00  0.00     0.172 C 
HETATM    8  O   LIG     1      -5.781   0.543  -0.656  1.00  0.00    -0.291 OA
HETATM    9  C   LIG     1      -2.802  -0.766   1.039  1.00  0.00     0.012 C 
HETATM   10  C   LIG     1      -4.185  -0.891   0.379  1.00  0.00     0.070 C 
HETATM   11  C   LIG     1      -0.396   0.196   0.932  1.00  0.00     0.061 C 
HETATM   12  C   LIG     1       0.254  -0.970   1.664  1.00  0.00     0.151 C 
HETATM   13  C   LIG     1       1.747  -1.038   1.767  1.00  0.00     0.071 C 
HETATM   14  O   LIG     1      -0.409  -1.753   2.324  1.00  0.00    -0.296 OA
HETATM   15  C   LIG     1       0.684   1.027   0.141  1.00  0.00     0.008 C 
HETATM   16  C   LIG     1       1.814   0.161  -0.524  1.00  0.00     0.008 C 
HETATM   17  C   LIG     1       3.014   1.037  -0.978  1.00  0.00     0.008 C 
HETATM   18  C   LIG     1       4.255   0.600  -0.210  1.00  0.00     0.065 C 
HETATM   19  C   LIG     1       3.842  -0.616   0.518  1.00  0.00     0.150 C 
HETATM   20  O   LIG     1       4.627  -1.267   1.194  1.00  0.00    -0.296 OA
HETATM   21  C   LIG     1       2.399  -0.976   0.373  1.00  0.00     0.059 C 
HETATM   22  C   LIG     1       2.298  -2.348  -0.329  1.00  0.00     0.008 C 
ENDROOT
TORSDOF 0
