REMARK  1 active torsions:
REMARK  status: ('A' for Active; 'I' for Inactive)
REMARK    1  A    between atoms: C_5  and  C_6 
ROOT
HETATM    1 CL   LIG     1       5.253   0.741  -0.270  1.00  0.00    -0.082 Cl
HETATM    2  C   LIG     1       3.514   0.487  -0.197  1.00  0.00     0.069 A 
HETATM    3  C   LIG     1       2.695   1.198  -1.078  1.00  0.00     0.012 A 
HETATM    4  C   LIG     1       1.312   1.024  -1.051  1.00  0.00     0.002 A 
HETATM    5  C   LIG     1       0.729   0.129  -0.144  1.00  0.00     0.012 A 
HETATM    6  C   LIG     1       1.546  -0.585   0.757  1.00  0.00     0.069 A 
HETATM    7 CL   LIG     1       0.820  -1.680   1.938  1.00  0.00    -0.082 Cl
HETATM    8  C   LIG     1       2.943  -0.407   0.727  1.00  0.00     0.079 A 
HETATM    9 CL   LIG     1       3.977  -1.296   1.845  1.00  0.00    -0.081 Cl
ENDROOT
BRANCH   5  10
HETATM   10  C   LIG     1      -0.739  -0.036  -0.146  1.00  0.00     0.012 A 
HETATM   11  C   LIG     1      -1.536   0.972   0.412  1.00  0.00     0.002 A 
HETATM   12  C   LIG     1      -2.925   0.843   0.430  1.00  0.00     0.012 A 
HETATM   13  C   LIG     1      -3.536  -0.289  -0.113  1.00  0.00     0.069 A 
HETATM   14  C   LIG     1      -2.751  -1.305  -0.687  1.00  0.00     0.079 A 
HETATM   15 CL   LIG     1      -5.291  -0.406  -0.065  1.00  0.00    -0.082 Cl
HETATM   16 CL   LIG     1      -3.525  -2.730  -1.381  1.00  0.00    -0.081 Cl
HETATM   17  C   LIG     1      -1.347  -1.178  -0.708  1.00  0.00     0.069 A 
HETATM   18 CL   LIG     1      -0.357  -2.434  -1.458  1.00  0.00    -0.082 Cl
ENDBRANCH   5  10
TORSDOF 1
