REMARK  1 active torsions:
REMARK  status: ('A' for Active; 'I' for Inactive)
REMARK    1  A    between atoms: C_7  and  C_11 
ROOT
HETATM    1 CL   LIG     1      -0.667  -2.538  -1.099  1.00  0.00    -0.082 Cl
HETATM    2  C   LIG     1      -1.482  -1.079  -0.526  1.00  0.00     0.069 A 
HETATM    3  C   LIG     1      -2.889  -1.009  -0.559  1.00  0.00     0.080 A 
HETATM    4 CL   LIG     1      -3.825  -2.348  -1.228  1.00  0.00    -0.081 Cl
HETATM    5  C   LIG     1      -3.551   0.125  -0.053  1.00  0.00     0.080 A 
HETATM    6 CL   LIG     1      -5.313   0.218  -0.092  1.00  0.00    -0.081 Cl
HETATM    7  C   LIG     1      -0.738  -0.004   0.009  1.00  0.00     0.012 A 
HETATM    8  C   LIG     1      -1.412   1.113   0.522  1.00  0.00     0.013 A 
HETATM    9  C   LIG     1      -2.806   1.183   0.491  1.00  0.00     0.069 A 
HETATM   10 CL   LIG     1      -3.593   2.616   1.141  1.00  0.00    -0.082 Cl
ENDROOT
BRANCH   7  11
HETATM   11  C   LIG     1       0.741  -0.025   0.047  1.00  0.00     0.002 A 
HETATM   12  C   LIG     1       1.417   0.115   1.269  1.00  0.00     0.001 A 
HETATM   13  C   LIG     1       2.814   0.113   1.306  1.00  0.00     0.012 A 
HETATM   14  C   LIG     1       3.551  -0.018   0.125  1.00  0.00     0.068 A 
HETATM   15  C   LIG     1       2.883  -0.145  -1.105  1.00  0.00     0.068 A 
HETATM   16 CL   LIG     1       5.308  -0.017   0.212  1.00  0.00    -0.082 Cl
HETATM   17 CL   LIG     1       3.772  -0.302  -2.614  1.00  0.00    -0.082 Cl
HETATM   18  C   LIG     1       1.483  -0.143  -1.140  1.00  0.00     0.012 A 
ENDBRANCH   7  11
TORSDOF 1
