REMARK  1 active torsions:
REMARK  status: ('A' for Active; 'I' for Inactive)
REMARK    1  A    between atoms: C_7  and  C_8 
ROOT
HETATM    1  C   LIG     1       0.709  -0.017   0.041  1.00  0.00     0.012 A 
HETATM    2  C   LIG     1       1.481  -0.674  -0.928  1.00  0.00     0.002 A 
HETATM    3  C   LIG     1       2.874  -0.643  -0.861  1.00  0.00     0.012 A 
HETATM    4  C   LIG     1       3.515   0.046   0.172  1.00  0.00     0.069 A 
HETATM    5 CL   LIG     1       5.274   0.057   0.212  1.00  0.00    -0.082 Cl
HETATM    6  C   LIG     1       2.756   0.710   1.152  1.00  0.00     0.079 A 
HETATM    7 CL   LIG     1       3.569   1.573   2.458  1.00  0.00    -0.081 Cl
HETATM    8  C   LIG     1       1.349   0.680   1.088  1.00  0.00     0.069 A 
HETATM    9 CL   LIG     1       0.393   1.483   2.337  1.00  0.00    -0.082 Cl
ENDROOT
BRANCH   1  10
HETATM   10  C   LIG     1      -0.765  -0.057  -0.069  1.00  0.00     0.012 A 
HETATM   11  C   LIG     1      -1.482  -1.254   0.137  1.00  0.00     0.058 A 
HETATM   12  C   LIG     1      -2.877  -1.260   0.012  1.00  0.00     0.012 A 
HETATM   13 CL   LIG     1      -0.670  -2.750   0.586  1.00  0.00    -0.082 Cl
HETATM   14  C   LIG     1      -3.561  -0.087  -0.317  1.00  0.00     0.012 A 
HETATM   15  C   LIG     1      -2.855   1.101  -0.523  1.00  0.00     0.058 A 
HETATM   16 CL   LIG     1      -3.715   2.573  -0.936  1.00  0.00    -0.082 Cl
HETATM   17  C   LIG     1      -1.462   1.117  -0.401  1.00  0.00     0.012 A 
ENDBRANCH   1  10
TORSDOF 1
