REMARK  1 active torsions:
REMARK  status: ('A' for Active; 'I' for Inactive)
REMARK    1  A    between atoms: C_7  and  C_10 
ROOT
HETATM    1 CL   LIG     1       3.845  -2.593   0.114  1.00  0.00    -0.082 Cl
HETATM    2  C   LIG     1       2.894  -1.117   0.002  1.00  0.00     0.068 C 
HETATM    3  C   LIG     1       3.546   0.109   0.122  1.00  0.00     0.013 C 
HETATM    4  C   LIG     1       2.869   1.277  -0.215  1.00  0.00     0.012 C 
HETATM    5  C   LIG     1       1.499   1.239  -0.495  1.00  0.00     0.059 C 
HETATM    6 CL   LIG     1       0.906   2.503  -1.575  1.00  0.00    -0.082 Cl
HETATM    7  C   LIG     1       0.757   0.051  -0.246  1.00  0.00     0.024 C 
HETATM    8  C   LIG     1       1.519  -1.151  -0.294  1.00  0.00     0.069 C 
HETATM    9 CL   LIG     1       0.915  -2.574  -1.157  1.00  0.00    -0.082 Cl
ENDROOT
BRANCH   7  10
HETATM   10  C   LIG     1      -0.758   0.052  -0.054  1.00  0.00     0.024 C 
HETATM   11  C   LIG     1      -1.525   1.250  -0.020  1.00  0.00     0.059 C 
HETATM   12  C   LIG     1      -2.895   1.209  -0.300  1.00  0.00     0.012 C 
HETATM   13 CL   LIG     1      -0.961   2.700   0.816  1.00  0.00    -0.082 Cl
HETATM   14  C   LIG     1      -3.547  -0.014  -0.421  1.00  0.00     0.013 C 
HETATM   15  C   LIG     1      -2.870  -1.185  -0.085  1.00  0.00     0.068 C 
HETATM   16 CL   LIG     1      -3.790  -2.677   0.071  1.00  0.00    -0.082 Cl
HETATM   17  C   LIG     1      -1.495  -1.137   0.210  1.00  0.00     0.069 C 
HETATM   18 CL   LIG     1      -0.864  -2.370   1.313  1.00  0.00    -0.082 Cl
ENDBRANCH   7  10
TORSDOF 1
