REMARK  1 active torsions:
REMARK  status: ('A' for Active; 'I' for Inactive)
REMARK    1  A    between atoms: C_7  and  C_8 
ROOT
HETATM    1  C   LIG     1       0.686   0.001   0.007  1.00  0.00     0.002 A 
HETATM    2  C   LIG     1       1.447  -1.010  -0.601  1.00  0.00     0.001 A 
HETATM    3  C   LIG     1       2.843  -0.945  -0.590  1.00  0.00     0.012 A 
HETATM    4  C   LIG     1       3.495   0.132   0.020  1.00  0.00     0.068 A 
HETATM    5 CL   LIG     1       5.253   0.178   0.014  1.00  0.00    -0.082 Cl
HETATM    6  C   LIG     1       2.741   1.155   0.620  1.00  0.00     0.068 A 
HETATM    7 CL   LIG     1       3.520   2.531   1.388  1.00  0.00    -0.082 Cl
HETATM    8  C   LIG     1       1.343   1.088   0.608  1.00  0.00     0.012 A 
ENDROOT
BRANCH   1   9
HETATM    9  C   LIG     1      -0.792  -0.063  -0.021  1.00  0.00     0.011 A 
HETATM   10  C   LIG     1      -1.561  -0.022   1.165  1.00  0.00     0.058 A 
HETATM   11 CL   LIG     1      -0.814   0.023   2.759  1.00  0.00    -0.082 Cl
HETATM   12  C   LIG     1      -2.959  -0.071   1.091  1.00  0.00     0.011 A 
HETATM   13  C   LIG     1      -3.598  -0.165  -0.147  1.00  0.00     0.001 A 
HETATM   14  C   LIG     1      -2.844  -0.217  -1.320  1.00  0.00     0.000 A 
HETATM   15  C   LIG     1      -1.449  -0.169  -1.259  1.00  0.00     0.001 A 
ENDBRANCH   1   9
TORSDOF 1
