REMARK  1 active torsions:
REMARK  status: ('A' for Active; 'I' for Inactive)
REMARK    1  A    between atoms: C_4  and  C_5 
ROOT
HETATM    1  C   LIG     1       0.740   0.108  -0.079  1.00  0.00     0.011 A 
HETATM    2  C   LIG     1       1.597  -0.932   0.325  1.00  0.00     0.012 A 
HETATM    3  C   LIG     1       2.985  -0.771   0.267  1.00  0.00     0.058 A 
HETATM    4 CL   LIG     1       4.041  -2.073   0.783  1.00  0.00    -0.082 Cl
HETATM    5  C   LIG     1       3.530   0.427  -0.201  1.00  0.00     0.012 A 
HETATM    6  C   LIG     1       2.690   1.462  -0.616  1.00  0.00     0.012 A 
HETATM    7  C   LIG     1       1.299   1.312  -0.562  1.00  0.00     0.058 A 
HETATM    8 CL   LIG     1       0.296   2.628  -1.167  1.00  0.00    -0.082 Cl
ENDROOT
BRANCH   1   9
HETATM    9  C   LIG     1      -0.724  -0.091   0.010  1.00  0.00     0.002 A 
HETATM   10  C   LIG     1      -1.519   0.789   0.764  1.00  0.00     0.011 A 
HETATM   11  C   LIG     1      -2.901   0.587   0.858  1.00  0.00     0.058 A 
HETATM   12 CL   LIG     1      -3.887   1.693   1.797  1.00  0.00    -0.082 Cl
HETATM   13  C   LIG     1      -3.495  -0.499   0.207  1.00  0.00     0.011 A 
HETATM   14  C   LIG     1      -2.708  -1.385  -0.534  1.00  0.00     0.001 A 
HETATM   15  C   LIG     1      -1.328  -1.186  -0.630  1.00  0.00     0.000 A 
ENDBRANCH   1   9
TORSDOF 1
