REMARK  1 active torsions:
REMARK  status: ('A' for Active; 'I' for Inactive)
REMARK    1  A    between atoms: C_5  and  C_6 
ROOT
HETATM    1  C   LIG     1      -0.758  -0.071  -0.075  1.00  0.00     0.011 A 
HETATM    2  C   LIG     1      -1.313  -1.313  -0.427  1.00  0.00     0.001 A 
HETATM    3  C   LIG     1      -2.696  -1.465  -0.537  1.00  0.00     0.001 A 
HETATM    4  C   LIG     1      -3.540  -0.381  -0.302  1.00  0.00     0.012 A 
HETATM    5  C   LIG     1      -3.008   0.867   0.037  1.00  0.00     0.068 A 
HETATM    6 CL   LIG     1      -4.114   2.209   0.305  1.00  0.00    -0.082 Cl
HETATM    7  C   LIG     1      -1.614   1.033   0.149  1.00  0.00     0.068 A 
HETATM    8 CL   LIG     1      -0.954   2.632   0.506  1.00  0.00    -0.082 Cl
ENDROOT
BRANCH   1   9
HETATM    9  C   LIG     1       0.712   0.045   0.048  1.00  0.00     0.001 A 
HETATM   10  C   LIG     1       1.540  -0.291  -1.036  1.00  0.00     0.001 A 
HETATM   11  C   LIG     1       2.930  -0.200  -0.917  1.00  0.00     0.011 A 
HETATM   12  C   LIG     1       3.505   0.221   0.287  1.00  0.00     0.058 A 
HETATM   13 CL   LIG     1       5.249   0.334   0.435  1.00  0.00    -0.082 Cl
HETATM   14  C   LIG     1       2.688   0.545   1.374  1.00  0.00     0.011 A 
HETATM   15  C   LIG     1       1.297   0.454   1.258  1.00  0.00     0.001 A 
ENDBRANCH   1   9
TORSDOF 1
