REMARK  1 active torsions:
REMARK  status: ('A' for Active; 'I' for Inactive)
REMARK    1  A    between atoms: C_8  and  C_9 
ROOT
HETATM    1 CL   LIG     1      -0.737   1.364  -2.267  1.00  0.00    -0.082 Cl
HETATM    2  C   LIG     1      -1.503   0.422  -0.984  1.00  0.00     0.068 A 
HETATM    3  C   LIG     1      -2.889   0.179  -1.025  1.00  0.00     0.068 A 
HETATM    4 CL   LIG     1      -3.892   0.819  -2.320  1.00  0.00    -0.082 Cl
HETATM    5  C   LIG     1      -3.494  -0.588  -0.024  1.00  0.00     0.012 A 
HETATM    6  C   LIG     1      -2.729  -1.116   1.017  1.00  0.00     0.001 A 
HETATM    7  C   LIG     1      -1.355  -0.880   1.066  1.00  0.00     0.001 A 
HETATM    8  C   LIG     1      -0.731  -0.112   0.070  1.00  0.00     0.012 A 
ENDROOT
BRANCH   8   9
HETATM    9  C   LIG     1       0.725   0.133   0.158  1.00  0.00     0.012 A 
HETATM   10  C   LIG     1       1.182   1.421   0.474  1.00  0.00     0.001 A 
HETATM   11  C   LIG     1       2.549   1.679   0.578  1.00  0.00     0.001 A 
HETATM   12  C   LIG     1       3.473   0.654   0.369  1.00  0.00     0.012 A 
HETATM   13  C   LIG     1       3.035  -0.636   0.052  1.00  0.00     0.068 A 
HETATM   14  C   LIG     1       1.657  -0.906  -0.055  1.00  0.00     0.068 A 
HETATM   15 CL   LIG     1       4.236  -1.894  -0.208  1.00  0.00    -0.082 Cl
HETATM   16 CL   LIG     1       1.109  -2.528  -0.486  1.00  0.00    -0.082 Cl
ENDBRANCH   8   9
TORSDOF 1
