REMARK  2 active torsions:
REMARK  status: ('A' for Active; 'I' for Inactive)
REMARK    1  A    between atoms: C_2  and  N_3 
REMARK    2  A    between atoms: C_5  and  C_6 
ROOT
HETATM    1  N   LIG     1       0.403   0.880   0.783  1.00  0.00    -0.311 N 
HETATM    2  C   LIG     1       1.754   0.761   0.962  1.00  0.00     0.086 A 
HETATM    3  C   LIG     1       2.454  -0.368   0.510  1.00  0.00     0.120 A 
HETATM    4  C   LIG     1      -0.306  -0.116   0.159  1.00  0.00     0.147 A 
HETATM    5  N   LIG     1      -1.653   0.002  -0.019  1.00  0.00    -0.233 NA
HETATM    6  C   LIG     1      -2.398  -0.959  -0.627  1.00  0.00     0.061 A 
HETATM    7  C   LIG     1      -3.873  -0.769  -0.784  1.00  0.00     0.052 C 
HETATM    8  C   LIG     1      -1.782  -2.126  -1.087  1.00  0.00     0.015 A 
HETATM    9  C   LIG     1      -0.407  -2.287  -0.922  1.00  0.00     0.007 A 
HETATM   10  C   LIG     1       0.352  -1.281  -0.297  1.00  0.00     0.073 A 
HETATM   11  C   LIG     1       1.738  -1.408  -0.109  1.00  0.00     0.206 A 
HETATM   12  O   LIG     1       2.332  -2.462  -0.470  1.00  0.00    -0.286 OA
ENDROOT
BRANCH   3  13
HETATM   13  C   LIG     1       3.921  -0.441   0.718  1.00  0.00     0.215 C 
HETATM   14  O   LIG     1       4.763  -1.024  -0.227  1.00  0.00    -0.644 OA
HETATM   15  O   LIG     1       4.430   0.058   1.757  1.00  0.00    -0.644 OA
ENDBRANCH   3  13
BRANCH   1  16
HETATM   16  C   LIG     1      -0.272   2.098   1.266  1.00  0.00     0.108 C 
HETATM   17  C   LIG     1      -0.517   3.070   0.115  1.00  0.00     0.027 C 
ENDBRANCH   1  16
TORSDOF 2
