REMARK  2 active torsions:
REMARK  status: ('A' for Active; 'I' for Inactive)
REMARK    1  A    between atoms: C_2  and  C_3 
REMARK    2  A    between atoms: C_2  and  C_5 
ROOT
HETATM    1  O   LIG     1       0.338   1.963   0.877  1.00  0.00    -0.224 OA
HETATM    2  C   LIG     1       0.465   0.831   0.048  1.00  0.00     0.152 C 
ENDROOT
BRANCH   2   3
HETATM    3  C   LIG     1       1.731   0.010   0.446  1.00  0.00     0.033 C 
HETATM    4  C   LIG     1       2.574  -0.406  -0.762  1.00  0.00     0.003 C 
ENDBRANCH   2   3
BRANCH   2   5
HETATM    5  C   LIG     1      -0.884   0.023   0.004  1.00  0.00     0.028 C 
HETATM    6  C   LIG     1      -1.993   0.938  -0.565  1.00  0.00     0.003 C 
HETATM    7  C   LIG     1      -1.328  -0.455   1.407  1.00  0.00     0.003 C 
HETATM    8  C   LIG     1      -0.760  -1.204  -0.925  1.00  0.00     0.003 C 
ENDBRANCH   2   5
TORSDOF 2
