REMARK  1 active torsions:
REMARK  status: ('A' for Active; 'I' for Inactive)
REMARK    1  A    between atoms: C_3  and  C_4 
ROOT
HETATM    1 CL   LIG     1       0.615  -2.140   1.717  1.00  0.00    -0.081 Cl
HETATM    2  C   LIG     1       1.463  -1.036   0.627  1.00  0.00     0.070 A 
HETATM    3  C   LIG     1       0.746  -0.052  -0.079  1.00  0.00     0.024 A 
HETATM    4  C   LIG     1       1.425   0.826  -0.946  1.00  0.00     0.070 A 
HETATM    5 CL   LIG     1       0.529   2.064  -1.834  1.00  0.00    -0.081 Cl
HETATM    6  C   LIG     1       2.817   0.716  -1.108  1.00  0.00     0.080 A 
HETATM    7 CL   LIG     1       3.668   1.815  -2.197  1.00  0.00    -0.081 Cl
HETATM    8  C   LIG     1       3.531  -0.269  -0.404  1.00  0.00     0.081 A 
HETATM    9 CL   LIG     1       5.279  -0.406  -0.608  1.00  0.00    -0.081 Cl
HETATM   10  C   LIG     1       2.855  -1.144   0.463  1.00  0.00     0.080 A 
HETATM   11 CL   LIG     1       3.753  -2.381   1.347  1.00  0.00    -0.081 Cl
ENDROOT
BRANCH   3  12
HETATM   12  C   LIG     1      -0.719   0.061   0.090  1.00  0.00     0.014 A 
HETATM   13  C   LIG     1      -1.225   0.897   1.092  1.00  0.00     0.013 A 
HETATM   14  C   LIG     1      -2.602   1.027   1.279  1.00  0.00     0.069 A 
HETATM   15  C   LIG     1      -3.494   0.316   0.459  1.00  0.00     0.080 A 
HETATM   16 CL   LIG     1      -3.183   2.092   2.554  1.00  0.00    -0.082 Cl
HETATM   17  C   LIG     1      -2.994  -0.527  -0.552  1.00  0.00     0.080 A 
HETATM   18 CL   LIG     1      -5.234   0.483   0.698  1.00  0.00    -0.081 Cl
HETATM   19 CL   LIG     1      -4.109  -1.423  -1.586  1.00  0.00    -0.081 Cl
HETATM   20  C   LIG     1      -1.605  -0.656  -0.738  1.00  0.00     0.069 A 
HETATM   21 CL   LIG     1      -0.972  -1.712  -2.004  1.00  0.00    -0.082 Cl
ENDBRANCH   3  12
TORSDOF 1
