REMARK  11 active torsions:
REMARK  status: ('A' for Active; 'I' for Inactive)
REMARK    1  A    between atoms: C_2  and  C_7 
REMARK    2  A    between atoms: C_2  and  O_3 
REMARK    3  A    between atoms: O_3  and  C_4 
REMARK    4  A    between atoms: C_8  and  C_10 
REMARK    5  A    between atoms: C_11  and  C_12 
REMARK    6  A    between atoms: C_12  and  C_13 
REMARK    7  A    between atoms: C_13  and  C_15 
REMARK    8  A    between atoms: C_15  and  C_16 
REMARK    9  A    between atoms: C_16  and  C_17 
REMARK   10  A    between atoms: C_17  and  C_18 
REMARK   11  A    between atoms: C_18  and  O_19 
ROOT
HETATM    1  C   LIG     1       1.625  -0.772   2.661  1.00  0.00    -0.009 C 
HETATM    2  C   LIG     1       0.389  -1.228   2.909  1.00  0.00    -0.026 C 
ENDROOT
BRANCH   2   3
HETATM    3  C   LIG     1      -0.394  -2.160   2.018  1.00  0.00     0.026 C 
BRANCH   3   4
HETATM    4  C   LIG     1      -0.743  -1.571   0.627  1.00  0.00     0.004 C 
HETATM    5  C   LIG     1      -1.683  -2.517  -0.126  1.00  0.00     0.000 C 
BRANCH   4   6
HETATM    6  C   LIG     1      -1.292  -0.122   0.656  1.00  0.00     0.000 C 
BRANCH   6   7
HETATM    7  C   LIG     1      -2.613   0.078   1.431  1.00  0.00     0.002 C 
BRANCH   7   8
HETATM    8  C   LIG     1      -3.878   0.177   0.550  1.00  0.00     0.027 C 
BRANCH   8   9
HETATM    9  C   LIG     1      -4.086   1.496  -0.270  1.00  0.00     0.093 C 
HETATM   10  C   LIG     1      -4.021   2.719   0.665  1.00  0.00     0.030 C 
HETATM   11  C   LIG     1      -5.515   1.484  -0.880  1.00  0.00     0.030 C 
BRANCH   9  12
HETATM   12  O   LIG     1      -3.067   1.684  -1.254  1.00  0.00    -0.356 OA
HETATM   13  C   LIG     1      -3.210   0.874  -2.407  1.00  0.00     0.174 C 
ENDBRANCH   9  12
ENDBRANCH   8   9
ENDBRANCH   7   8
ENDBRANCH   6   7
ENDBRANCH   4   6
ENDBRANCH   3   4
ENDBRANCH   2   3
BRANCH   1  14
HETATM   14  C   LIG     1       2.427  -1.122   1.471  1.00  0.00    -0.017 C 
HETATM   15  C   LIG     1       2.850  -0.115   0.685  1.00  0.00     0.064 C 
HETATM   16  C   LIG     1       2.814  -2.559   1.238  1.00  0.00     0.031 C 
BRANCH  15  17
HETATM   17  C   LIG     1       3.662  -0.247  -0.542  1.00  0.00     0.296 C 
HETATM   18  O   LIG     1       3.820  -1.364  -1.109  1.00  0.00    -0.259 OA
BRANCH  17  19
HETATM   19  O   LIG     1       4.227   0.911  -1.089  1.00  0.00    -0.301 OA
BRANCH  19  20
HETATM   20  C   LIG     1       5.058   0.920  -2.252  1.00  0.00     0.125 C 
HETATM   21  C   LIG     1       6.432   0.327  -1.933  1.00  0.00     0.033 C 
HETATM   22  C   LIG     1       5.207   2.360  -2.740  1.00  0.00     0.033 C 
ENDBRANCH  19  20
ENDBRANCH  17  19
ENDBRANCH  15  17
ENDBRANCH   1  14
TORSDOF 11
