REMARK  1 active torsions:
REMARK  status: ('A' for Active; 'I' for Inactive)
REMARK    1  A    between atoms: C_7  and  C_8 
ROOT
HETATM    1 CL   LIG     1       3.477   3.005  -0.280  1.00  0.00    -0.082 Cl
HETATM    2  C   LIG     1       2.732   1.419  -0.193  1.00  0.00     0.058 A 
HETATM    3  C   LIG     1       3.530   0.272  -0.180  1.00  0.00     0.012 A 
HETATM    4  C   LIG     1       2.938  -0.992  -0.115  1.00  0.00     0.012 A 
HETATM    5  C   LIG     1       1.545  -1.118  -0.057  1.00  0.00     0.058 A 
HETATM    6 CL   LIG     1       0.843  -2.732  -0.013  1.00  0.00    -0.082 Cl
HETATM    7  C   LIG     1       0.737   0.038  -0.059  1.00  0.00     0.012 A 
HETATM    8  C   LIG     1       1.340   1.303  -0.136  1.00  0.00     0.012 A 
ENDROOT
BRANCH   7   9
HETATM    9  C   LIG     1      -0.736  -0.057   0.003  1.00  0.00     0.012 A 
HETATM   10  C   LIG     1      -1.482   0.201  -1.157  1.00  0.00     0.001 A 
HETATM   11  C   LIG     1      -2.875   0.116  -1.131  1.00  0.00     0.001 A 
HETATM   12  C   LIG     1      -3.534  -0.222   0.052  1.00  0.00     0.012 A 
HETATM   13  C   LIG     1      -2.805  -0.471   1.220  1.00  0.00     0.068 A 
HETATM   14 CL   LIG     1      -3.680  -0.881   2.689  1.00  0.00    -0.082 Cl
HETATM   15  C   LIG     1      -1.400  -0.386   1.204  1.00  0.00     0.068 A 
HETATM   16 CL   LIG     1      -0.484  -0.661   2.687  1.00  0.00    -0.082 Cl
ENDBRANCH   7   9
TORSDOF 1
