REMARK  1 active torsions:
REMARK  status: ('A' for Active; 'I' for Inactive)
REMARK    1  A    between atoms: C_5  and  C_9 
ROOT
HETATM    1 CL   LIG     1       0.387   2.819   0.103  1.00  0.00    -0.082 Cl
HETATM    2  C   LIG     1       1.331   1.336   0.014  1.00  0.00     0.058 A 
HETATM    3  C   LIG     1       2.728   1.423   0.012  1.00  0.00     0.012 A 
HETATM    4  C   LIG     1       3.506   0.265  -0.068  1.00  0.00     0.012 A 
HETATM    5  C   LIG     1       0.708   0.074  -0.063  1.00  0.00     0.013 A 
HETATM    6  C   LIG     1       1.497  -1.084  -0.145  1.00  0.00     0.012 A 
HETATM    7  C   LIG     1       2.892  -0.988  -0.147  1.00  0.00     0.058 A 
HETATM    8 CL   LIG     1       3.871  -2.440  -0.248  1.00  0.00    -0.082 Cl
ENDROOT
BRANCH   5   9
HETATM    9  C   LIG     1      -0.763  -0.052  -0.061  1.00  0.00     0.022 A 
HETATM   10  C   LIG     1      -1.466  -0.192  -1.276  1.00  0.00     0.059 A 
HETATM   11  C   LIG     1      -2.860  -0.310  -1.267  1.00  0.00     0.011 A 
HETATM   12 CL   LIG     1      -0.628  -0.208  -2.824  1.00  0.00    -0.082 Cl
HETATM   13  C   LIG     1      -3.560  -0.293  -0.059  1.00  0.00     0.002 A 
HETATM   14  C   LIG     1      -2.872  -0.158   1.148  1.00  0.00     0.011 A 
HETATM   15  C   LIG     1      -1.477  -0.038   1.155  1.00  0.00     0.059 A 
HETATM   16 CL   LIG     1      -0.652   0.119   2.702  1.00  0.00    -0.082 Cl
ENDBRANCH   5   9
TORSDOF 1
