REMARK  1 active torsions:
REMARK  status: ('A' for Active; 'I' for Inactive)
REMARK    1  A    between atoms: C_8  and  C_9 
ROOT
HETATM    1 CL   LIG     1      -0.773  -2.157  -1.748  1.00  0.00    -0.082 Cl
HETATM    2  C   LIG     1      -1.524  -0.879  -0.798  1.00  0.00     0.058 A 
HETATM    3  C   LIG     1      -2.918  -0.757  -0.823  1.00  0.00     0.012 A 
HETATM    4  C   LIG     1      -3.551   0.261  -0.105  1.00  0.00     0.012 A 
HETATM    5  C   LIG     1      -2.792   1.167   0.641  1.00  0.00     0.058 A 
HETATM    6 CL   LIG     1      -3.588   2.445   1.541  1.00  0.00    -0.082 Cl
HETATM    7  C   LIG     1      -1.399   1.053   0.672  1.00  0.00     0.012 A 
HETATM    8  C   LIG     1      -0.753   0.033  -0.046  1.00  0.00     0.012 A 
ENDROOT
BRANCH   8   9
HETATM    9  C   LIG     1       0.720  -0.073   0.014  1.00  0.00     0.011 A 
HETATM   10  C   LIG     1       1.304  -1.172   0.666  1.00  0.00     0.002 A 
HETATM   11  C   LIG     1       2.694  -1.288   0.750  1.00  0.00     0.011 A 
HETATM   12  C   LIG     1       3.514  -0.307   0.186  1.00  0.00     0.059 A 
HETATM   13  C   LIG     1       2.943   0.791  -0.465  1.00  0.00     0.023 A 
HETATM   14 CL   LIG     1       5.258  -0.455   0.292  1.00  0.00    -0.082 Cl
HETATM   15  C   LIG     1       1.551   0.916  -0.554  1.00  0.00     0.059 A 
HETATM   16 CL   LIG     1       0.882   2.299  -1.413  1.00  0.00    -0.082 Cl
ENDBRANCH   8   9
TORSDOF 1
