REMARK  1 active torsions:
REMARK  status: ('A' for Active; 'I' for Inactive)
REMARK    1  A    between atoms: C_3  and  C_4 
ROOT
HETATM    1  C   LIG     1      -1.297  -0.039   0.648  1.00  0.00     0.031 C 
HETATM    2  C   LIG     1      -0.421   0.827  -0.206  1.00  0.00    -0.022 C 
HETATM    3  C   LIG     1       0.800   0.467  -0.620  1.00  0.00     0.041 C 
ENDROOT
BRANCH   3   4
HETATM    4  C   LIG     1       1.429  -0.820  -0.285  1.00  0.00     0.234 C 
HETATM    5  O   LIG     1       2.583  -1.082  -0.715  1.00  0.00    -0.283 OA
ENDBRANCH   3   4
TORSDOF 1
