REMARK  0 active torsions:
REMARK  status: ('A' for Active; 'I' for Inactive)
ROOT
HETATM    1  C   LIG     1      -0.590   2.069   0.527  1.00  0.00     0.033 C 
HETATM    2  C   LIG     1      -0.845   0.665   0.064  1.00  0.00    -0.005 A 
HETATM    3  C   LIG     1      -2.154   0.253  -0.270  1.00  0.00    -0.003 A 
HETATM    4  C   LIG     1      -2.410  -1.062  -0.706  1.00  0.00     0.000 A 
HETATM    5  C   LIG     1      -1.369  -1.994  -0.819  1.00  0.00     0.008 A 
HETATM    6  C   LIG     1      -0.080  -1.587  -0.490  1.00  0.00     0.048 A 
HETATM    7  C   LIG     1       0.188  -0.283  -0.055  1.00  0.00     0.070 A 
HETATM    8  N   LIG     1       1.506  -0.113   0.208  1.00  0.00    -0.266 N 
HETATM    9  C   LIG     1       2.385   0.808   0.626  1.00  0.00     0.207 A 
HETATM   10  N   LIG     1       3.628   0.262   0.661  1.00  0.00    -0.125 NA
HETATM   11  N   LIG     1       3.538  -1.009   0.265  1.00  0.00    -0.121 NA
HETATM   12  C   LIG     1       2.235  -1.191   0.001  1.00  0.00     0.201 A 
HETATM   13  S   LIG     1       1.354  -2.522  -0.541  1.00  0.00    -0.047 SA
ENDROOT
TORSDOF 0
