REMARK  7 active torsions:
REMARK  status: ('A' for Active; 'I' for Inactive)
REMARK    1  A    between atoms: C_2  and  O_3 
REMARK    2  A    between atoms: O_3  and  C_4 
REMARK    3  A    between atoms: C_4  and  C_5 
REMARK    4  A    between atoms: C_5  and  C_6 
REMARK    5  A    between atoms: C_6  and  C_7 
REMARK    6  A    between atoms: C_7  and  C_8 
REMARK    7  A    between atoms: C_8  and  C_9 
ROOT
HETATM    1  C   LIG     1       1.151   0.318  -0.555  1.00  0.00     0.033 C 
ENDROOT
BRANCH   1   2
HETATM    2  C   LIG     1       2.101  -0.844  -0.239  1.00  0.00     0.153 C 
BRANCH   2   3
HETATM    3  O   LIG     1       3.449  -0.381  -0.174  1.00  0.00    -0.287 OA
BRANCH   3   4
HETATM    4  C   LIG     1       3.964   0.340   0.909  1.00  0.00     0.373 C 
HETATM    5  N   LIG     1       5.311   0.801   0.868  1.00  0.00    -0.032 NA
HETATM    6  O   LIG     1       3.253   0.580   1.922  1.00  0.00    -0.242 OA
ENDBRANCH   3   4
ENDBRANCH   2   3
ENDBRANCH   1   2
BRANCH   1   7
HETATM    7  C   LIG     1      -0.290  -0.146  -0.820  1.00  0.00     0.003 C 
BRANCH   7   8
HETATM    8  C   LIG     1      -1.023  -0.553   0.470  1.00  0.00     0.000 C 
BRANCH   8   9
HETATM    9  C   LIG     1      -2.436  -1.107   0.207  1.00  0.00     0.000 C 
BRANCH   9  10
HETATM   10  C   LIG     1      -3.422  -0.102  -0.416  1.00  0.00     0.000 C 
HETATM   11  C   LIG     1      -3.675   1.116   0.471  1.00  0.00     0.000 C 
ENDBRANCH   9  10
ENDBRANCH   8   9
ENDBRANCH   7   8
ENDBRANCH   1   7
TORSDOF 7
