REMARK  2 active torsions:
REMARK  status: ('A' for Active; 'I' for Inactive)
REMARK    1  A    between atoms: C_2  and  O_5 
REMARK    2  A    between atoms: O_5  and  C_6 
ROOT
HETATM    1  C   LIG     1      -1.255   1.153   0.140  1.00  0.00     0.030 C 
HETATM    2  C   LIG     1      -0.551  -0.216   0.176  1.00  0.00     0.103 C 
HETATM    3  C   LIG     1      -0.815  -0.997  -1.126  1.00  0.00     0.030 C 
HETATM    4  C   LIG     1      -1.101  -1.026   1.360  1.00  0.00     0.030 C 
ENDROOT
BRANCH   2   5
HETATM    5  O   LIG     1       0.860  -0.054   0.391  1.00  0.00    -0.292 OA
BRANCH   5   6
HETATM    6  C   LIG     1       1.755   0.624  -0.449  1.00  0.00     0.373 C 
HETATM    7  N   LIG     1       3.131   0.693  -0.088  1.00  0.00    -0.032 NA
HETATM    8  O   LIG     1       1.367   1.172  -1.515  1.00  0.00    -0.242 OA
ENDBRANCH   5   6
ENDBRANCH   2   5
TORSDOF 2
