REMARK  1 active torsions:
REMARK  status: ('A' for Active; 'I' for Inactive)
REMARK    1  A    between atoms: C_20  and  C_21 
ROOT
HETATM    1  C   LIG     1       1.324   0.966   0.154  1.00  0.00     0.005 C 
HETATM    2  C   LIG     1      -0.154   1.296   0.529  1.00  0.00     0.034 C 
HETATM    3  C   LIG     1      -1.002   1.871  -0.630  1.00  0.00     0.007 C 
HETATM    4  C   LIG     1      -2.493   1.712  -0.357  1.00  0.00     0.019 C 
HETATM    5  C   LIG     1      -3.320   2.534  -1.361  1.00  0.00     0.004 C 
HETATM    6  C   LIG     1      -2.750   0.222  -0.349  1.00  0.00    -0.036 C 
HETATM    7  C   LIG     1      -3.421  -0.389  -1.349  1.00  0.00     0.034 C 
HETATM    8  C   LIG     1      -3.404  -1.845  -1.481  1.00  0.00     0.195 C 
HETATM    9  C   LIG     1      -2.519  -2.628  -0.624  1.00  0.00     0.038 C 
HETATM   10  C   LIG     1      -1.863  -2.042   0.379  1.00  0.00    -0.017 C 
HETATM   11  C   LIG     1      -2.130  -0.591   0.806  1.00  0.00     0.064 C 
HETATM   12  C   LIG     1      -3.249  -0.708   1.875  1.00  0.00     0.011 C 
HETATM   13  C   LIG     1      -0.837   0.166   1.434  1.00  0.00     0.168 C 
HETATM   14  F   LIG     1      -1.301   0.869   2.544  1.00  0.00    -0.237 F 
HETATM   15  C   LIG     1       0.274  -0.771   2.038  1.00  0.00     0.182 C 
HETATM   16  O   LIG     1      -0.286  -1.736   2.890  1.00  0.00    -0.221 OA
HETATM   17  C   LIG     1       1.244  -1.423   1.000  1.00  0.00     0.038 C 
HETATM   18  C   LIG     1       1.595  -0.497  -0.215  1.00  0.00     0.035 C 
HETATM   19  C   LIG     1       0.739  -0.927  -1.448  1.00  0.00     0.003 C 
HETATM   20  C   LIG     1       3.113  -0.447  -0.647  1.00  0.00     0.177 C 
HETATM   21  O   LIG     1       3.404  -1.444  -1.603  1.00  0.00    -0.218 OA
HETATM   22  C   LIG     1       3.251   0.939  -1.338  1.00  0.00     0.038 C 
HETATM   23  C   LIG     1       2.061   1.808  -0.889  1.00  0.00     0.003 C 
HETATM   24  O   LIG     1      -4.102  -2.413  -2.361  1.00  0.00    -0.287 OA
ENDROOT
BRANCH  20  25
HETATM   25  C   LIG     1       4.123  -0.578   0.512  1.00  0.00     0.178 C 
HETATM   26  C   LIG     1       4.394   0.503   1.527  1.00  0.00     0.075 C 
HETATM   27  O   LIG     1       4.754  -1.619   0.631  1.00  0.00    -0.293 OA
ENDBRANCH  20  25
TORSDOF 1
