REMARK  5 active torsions:
REMARK  status: ('A' for Active; 'I' for Inactive)
REMARK    1  A    between atoms: C_2  and  C_3 
REMARK    2  A    between atoms: C_3  and  C_4 
REMARK    3  A    between atoms: C_4  and  C_5 
REMARK    4  A    between atoms: C_5  and  C_6 
REMARK    5  A    between atoms: C_6  and  C_7 
ROOT
HETATM    1  C   LIG     1      -0.035  -0.103  -0.849  1.00  0.00     0.000 C 
ENDROOT
BRANCH   1   2
HETATM    2  C   LIG     1       1.012   0.304   0.199  1.00  0.00     0.000 C 
BRANCH   2   3
HETATM    3  C   LIG     1       2.433   0.115  -0.344  1.00  0.00     0.000 C 
HETATM    4  C   LIG     1       3.478   0.507   0.697  1.00  0.00     0.000 C 
ENDBRANCH   2   3
ENDBRANCH   1   2
BRANCH   1   5
HETATM    5  C   LIG     1      -1.473   0.195  -0.396  1.00  0.00     0.001 C 
BRANCH   5   6
HETATM    6  C   LIG     1      -1.945  -0.743   0.727  1.00  0.00     0.011 C 
BRANCH   6   7
HETATM    7  C   LIG     1      -3.425  -0.542   1.057  1.00  0.00     0.063 C 
HETATM    8  I   LIG     1      -3.773   1.318   2.063  1.00  0.00    -0.075 I 
ENDBRANCH   6   7
ENDBRANCH   5   6
ENDBRANCH   1   5
TORSDOF 5
