REMARK  5 active torsions:
REMARK  status: ('A' for Active; 'I' for Inactive)
REMARK    1  A    between atoms: C_2  and  C_3 
REMARK    2  A    between atoms: C_2  and  C_7 
REMARK    3  A    between atoms: C_7  and  N_8 
REMARK    4  A    between atoms: C_7  and  O_13 
REMARK    5  A    between atoms: O_13  and  C_14 
ROOT
HETATM    1  C   LIG     1      -0.374   1.297  -0.422  1.00  0.00     0.286 C 
ENDROOT
BRANCH   1   2
HETATM    2  C   LIG     1      -1.408   0.356   0.181  1.00  0.00     0.201 C 
HETATM    3  O   LIG     1      -1.746   0.526   1.346  1.00  0.00    -0.291 OA
BRANCH   2   4
HETATM    4  C   LIG     1      -2.104  -0.754  -0.617  1.00  0.00     0.056 C 
HETATM    5  C   LIG     1      -3.613  -0.443  -0.675  1.00  0.00     0.007 C 
HETATM    6  C   LIG     1      -1.578  -0.885  -2.065  1.00  0.00     0.007 C 
HETATM    7  C   LIG     1      -1.893  -2.103   0.099  1.00  0.00     0.007 C 
ENDBRANCH   2   4
ENDBRANCH   1   2
BRANCH   1   8
HETATM    8  N   LIG     1      -0.002   2.408   0.467  1.00  0.00    -0.197 N 
HETATM    9  C   LIG     1       0.541   2.362   1.699  1.00  0.00     0.200 A 
HETATM   10  N   LIG     1       0.772   3.599   2.179  1.00  0.00    -0.201 NA
HETATM   11  C   LIG     1       0.346   4.388   1.171  1.00  0.00     0.221 A 
HETATM   12  N   LIG     1      -0.123   3.679   0.127  1.00  0.00    -0.143 NA
ENDBRANCH   1   8
BRANCH   1  13
HETATM   13  O   LIG     1       0.794   0.635  -0.925  1.00  0.00    -0.304 OA
BRANCH  13  14
HETATM   14  C   LIG     1       1.727  -0.164  -0.238  1.00  0.00     0.097 A 
HETATM   15  C   LIG     1       1.466  -0.788   0.998  1.00  0.00     0.025 A 
HETATM   16  C   LIG     1       2.444  -1.579   1.611  1.00  0.00     0.013 A 
HETATM   17  C   LIG     1       3.686  -1.762   0.997  1.00  0.00     0.058 A 
HETATM   18  C   LIG     1       3.948  -1.158  -0.235  1.00  0.00     0.013 A 
HETATM   19 CL   LIG     1       4.909  -2.756   1.768  1.00  0.00    -0.082 Cl
HETATM   20  C   LIG     1       2.972  -0.368  -0.848  1.00  0.00     0.025 A 
ENDBRANCH  13  14
ENDBRANCH   1  13
TORSDOF 5
