REMARK  2 active torsions:
REMARK  status: ('A' for Active; 'I' for Inactive)
REMARK    1  A    between atoms: C_2  and  C_5 
REMARK    2  A    between atoms: C_6  and  C_7 
ROOT
HETATM    1  C   LIG     1      -0.760  -0.374  -0.034  1.00  0.00     0.077 A 
HETATM    2  C   LIG     1       0.620  -0.108  -0.276  1.00  0.00     0.068 A 
HETATM    3  C   LIG     1       1.134   1.170   0.007  1.00  0.00     0.006 A 
HETATM    4  C   LIG     1       0.310   2.177   0.509  1.00  0.00     0.000 A 
HETATM    5  C   LIG     1      -1.039   1.925   0.737  1.00  0.00    -0.000 A 
HETATM    6  C   LIG     1      -1.572   0.664   0.470  1.00  0.00     0.004 A 
ENDROOT
BRANCH   1   7
HETATM    7  C   LIG     1      -1.370  -1.744  -0.274  1.00  0.00     0.419 C 
HETATM    8  F   LIG     1      -2.647  -1.835   0.253  1.00  0.00    -0.166 F 
HETATM    9  F   LIG     1      -1.449  -1.986  -1.633  1.00  0.00    -0.166 F 
HETATM   10  F   LIG     1      -0.594  -2.720   0.326  1.00  0.00    -0.166 F 
ENDBRANCH   1   7
BRANCH   2  11
HETATM   11  C   LIG     1       1.554  -1.128  -0.813  1.00  0.00     0.211 C 
HETATM   12  O   LIG     1       2.849  -1.242  -0.312  1.00  0.00    -0.644 OA
HETATM   13  O   LIG     1       1.200  -1.887  -1.752  1.00  0.00    -0.644 OA
ENDBRANCH   2  11
TORSDOF 2
