REMARK  1 active torsions:
REMARK  status: ('A' for Active; 'I' for Inactive)
REMARK    1  A    between atoms: C_7  and  O_8 
ROOT
HETATM    1  O   LIG     1       0.894  -2.316  -1.078  1.00  0.00    -0.286 OA
HETATM    2  C   LIG     1       0.809  -1.220  -0.462  1.00  0.00     0.201 A 
HETATM    3  C   LIG     1      -0.450  -0.642  -0.160  1.00  0.00     0.087 A 
HETATM    4  C   LIG     1      -1.708  -1.258  -0.432  1.00  0.00     0.138 A 
HETATM    5  O   LIG     1      -1.849  -2.570  -0.895  1.00  0.00    -0.190 OA
HETATM    6  C   LIG     1      -2.892  -0.545  -0.208  1.00  0.00     0.052 A 
HETATM    7  C   LIG     1      -2.871   0.743   0.348  1.00  0.00     0.098 A 
HETATM    8  C   LIG     1      -1.647   1.323   0.674  1.00  0.00     0.049 A 
HETATM    9  C   LIG     1      -0.447   0.653   0.424  1.00  0.00     0.107 A 
HETATM   10  O   LIG     1       0.693   1.259   0.738  1.00  0.00    -0.307 OA
HETATM   11  C   LIG     1       1.883   0.721   0.514  1.00  0.00     0.103 A 
HETATM   12  C   LIG     1       3.036   1.420   0.884  1.00  0.00     0.027 A 
HETATM   13  C   LIG     1       4.298   0.874   0.642  1.00  0.00     0.029 A 
HETATM   14  C   LIG     1       1.989  -0.543  -0.102  1.00  0.00     0.064 A 
HETATM   15  C   LIG     1       3.267  -1.084  -0.347  1.00  0.00     0.033 A 
HETATM   16  C   LIG     1       4.417  -0.379   0.025  1.00  0.00     0.131 A 
HETATM   17  O   LIG     1       5.671  -0.931  -0.222  1.00  0.00    -0.190 OA
ENDROOT
BRANCH   7  18
HETATM   18  O   LIG     1      -4.042   1.475   0.599  1.00  0.00    -0.328 OA
HETATM   19  C   LIG     1      -5.358   1.010   0.319  1.00  0.00     0.181 C 
ENDBRANCH   7  18
TORSDOF 1
