REMARK  4 active torsions:
REMARK  status: ('A' for Active; 'I' for Inactive)
REMARK    1  A    between atoms: C_2  and  C_3 
REMARK    2  A    between atoms: C_8  and  N_9 
REMARK    3  A    between atoms: N_9  and  C_10 
REMARK    4  A    between atoms: C_14  and  C_15 
ROOT
HETATM    1  C   LIG     1      -0.761   0.286   0.400  1.00  0.00     0.083 A 
HETATM    2  C   LIG     1      -0.748  -1.120   0.389  1.00  0.00     0.019 A 
HETATM    3  C   LIG     1      -1.883  -1.831  -0.006  1.00  0.00     0.002 A 
HETATM    4  C   LIG     1      -3.045  -1.152  -0.375  1.00  0.00     0.004 A 
HETATM    5  C   LIG     1      -3.093   0.252  -0.330  1.00  0.00     0.073 A 
HETATM    6  C   LIG     1      -1.938   0.963   0.043  1.00  0.00     0.023 A 
ENDROOT
BRANCH   1   7
HETATM    7  N   LIG     1       0.396   1.046   0.794  1.00  0.00    -0.227 NA
BRANCH   7   8
HETATM    8  C   LIG     1       1.728   0.515   0.840  1.00  0.00     0.168 A 
HETATM    9  C   LIG     1       2.323  -0.123  -0.277  1.00  0.00     0.100 A 
HETATM   10  C   LIG     1       3.596  -0.693  -0.119  1.00  0.00     0.011 A 
HETATM   11  C   LIG     1       4.273  -0.581   1.095  1.00  0.00     0.021 A 
HETATM   12  C   LIG     1       3.672   0.100   2.152  1.00  0.00     0.101 A 
HETATM   13  N   LIG     1       2.428   0.623   2.003  1.00  0.00    -0.225 NA
BRANCH   9  14
HETATM   14  C   LIG     1       1.671  -0.179  -1.605  1.00  0.00     0.214 C 
HETATM   15  O   LIG     1       0.962   0.908  -2.111  1.00  0.00    -0.644 OA
HETATM   16  O   LIG     1       1.786  -1.214  -2.313  1.00  0.00    -0.644 OA
ENDBRANCH   9  14
ENDBRANCH   7   8
ENDBRANCH   1   7
BRANCH   5  17
HETATM   17  C   LIG     1      -4.333   0.989  -0.770  1.00  0.00     0.419 C 
HETATM   18  F   LIG     1      -4.251   1.247  -2.126  1.00  0.00    -0.166 F 
HETATM   19  F   LIG     1      -4.455   2.188  -0.090  1.00  0.00    -0.166 F 
HETATM   20  F   LIG     1      -5.466   0.234  -0.522  1.00  0.00    -0.166 F 
ENDBRANCH   5  17
TORSDOF 4
