REMARK  2 active torsions:
REMARK  status: ('A' for Active; 'I' for Inactive)
REMARK    1  A    between atoms: C_2  and  C_3 
REMARK    2  A    between atoms: C_3  and  C_4 
ROOT
HETATM    1  C   LIG     1       0.227   0.137  -0.420  1.00  0.00     0.264 C 
HETATM    2  C   LIG     1      -0.561   0.473   0.877  1.00  0.00     0.036 C 
HETATM    3  C   LIG     1      -1.998   0.877   0.549  1.00  0.00     0.004 C 
HETATM    4  C   LIG     1      -2.738  -0.258  -0.179  1.00  0.00     0.038 C 
HETATM    5  C   LIG     1      -1.783  -1.169  -0.976  1.00  0.00     0.290 C 
HETATM    6  N   LIG     1      -0.629  -0.420  -1.493  1.00  0.00     0.337 N 
ENDROOT
BRANCH   1   7
HETATM    7  C   LIG     1       1.393  -0.831  -0.145  1.00  0.00     0.100 C 
BRANCH   7   8
HETATM    8  C   LIG     1       2.412  -0.231   0.788  1.00  0.00     0.153 C 
HETATM    9  C   LIG     1       3.406   0.779   0.299  1.00  0.00     0.072 C 
HETATM   10  O   LIG     1       2.412  -0.548   1.968  1.00  0.00    -0.296 OA
ENDBRANCH   7   8
ENDBRANCH   1   7
TORSDOF 2
