REMARK  0 active torsions:
REMARK  status: ('A' for Active; 'I' for Inactive)
ROOT
HETATM    1  C   LIG     1      -1.556   1.220  -0.828  1.00  0.00     0.000 C 
HETATM    2  C   LIG     1      -1.004   0.132   0.120  1.00  0.00     0.000 C 
HETATM    3  C   LIG     1       0.303   0.601   0.773  1.00  0.00     0.000 C 
HETATM    4  C   LIG     1       1.409   0.247  -0.224  1.00  0.00     0.000 C 
HETATM    5  C   LIG     1       2.730  -0.097   0.474  1.00  0.00     0.000 C 
HETATM    6  C   LIG     1       0.871  -0.914  -1.072  1.00  0.00     0.000 C 
HETATM    7  C   LIG     1      -0.592  -1.115  -0.676  1.00  0.00     0.000 C 
HETATM    8  C   LIG     1      -2.068  -0.207   1.182  1.00  0.00     0.000 C 
ENDROOT
TORSDOF 0
