REMARK  0 active torsions:
REMARK  status: ('A' for Active; 'I' for Inactive)
ROOT
HETATM    1  O   LIG     1       1.569  -0.667   0.798  1.00  0.00    -0.221 OA
HETATM    2  C   LIG     1       0.863  -0.086  -0.267  1.00  0.00     0.184 C 
HETATM    3  C   LIG     1       0.403   1.306   0.119  1.00  0.00     0.175 C 
HETATM    4  O   LIG     1      -0.883   1.228   0.691  1.00  0.00    -0.351 OA
HETATM    5  C   LIG     1      -1.408  -0.047   0.395  1.00  0.00     0.145 C 
HETATM    6  C   LIG     1      -0.437  -0.803  -0.491  1.00  0.00     0.068 C 
ENDROOT
TORSDOF 0
