REMARK  2 active torsions:
REMARK  status: ('A' for Active; 'I' for Inactive)
REMARK    1  A    between atoms: C_2  and  C_3 
REMARK    2  A    between atoms: C_3  and  C_4 
ROOT
HETATM    1  C   LIG     1      -0.195   0.682   0.261  1.00  0.00     0.257 C 
HETATM    2  N   LIG     1      -0.595  -0.160   1.403  1.00  0.00     0.337 N 
HETATM    3  C   LIG     1      -2.057  -0.143   1.601  1.00  0.00     0.290 C 
HETATM    4  C   LIG     1      -2.860  -0.118   0.279  1.00  0.00     0.038 C 
HETATM    5  C   LIG     1      -2.042  -0.674  -0.890  1.00  0.00     0.004 C 
HETATM    6  C   LIG     1      -0.730   0.109  -1.077  1.00  0.00     0.036 C 
ENDROOT
BRANCH   1   7
HETATM    7  C   LIG     1       1.331   0.926   0.242  1.00  0.00     0.036 C 
BRANCH   7   8
HETATM    8  C   LIG     1       2.184  -0.351   0.354  1.00  0.00     0.002 C 
HETATM    9  C   LIG     1       3.668  -0.032   0.201  1.00  0.00     0.000 C 
ENDBRANCH   7   8
ENDBRANCH   1   7
TORSDOF 2
