REMARK  0 active torsions:
REMARK  status: ('A' for Active; 'I' for Inactive)
ROOT
HETATM    1  C   LIG     1      -1.154   2.465  -0.104  1.00  0.00     0.052 C 
HETATM    2  C   LIG     1      -0.494   1.125  -0.039  1.00  0.00     0.063 A 
HETATM    3  C   LIG     1       0.900   1.022  -0.002  1.00  0.00     0.048 A 
HETATM    4  C   LIG     1       1.476  -0.251   0.051  1.00  0.00     0.153 A 
HETATM    5  N   LIG     1       2.895  -0.404   0.081  1.00  0.00    -0.080 NA
HETATM    6  N   LIG     1       0.677  -1.350   0.070  1.00  0.00    -0.217 NA
HETATM    7  C   LIG     1      -0.678  -1.235   0.048  1.00  0.00     0.141 A 
HETATM    8  C   LIG     1      -1.531  -2.459   0.031  1.00  0.00     0.074 C 
HETATM    9  N   LIG     1      -1.252  -0.004  -0.018  1.00  0.00    -0.235 NA
ENDROOT
TORSDOF 0
