REMARK  0 active torsions:
REMARK  status: ('A' for Active; 'I' for Inactive)
ROOT
HETATM    1  O   LIG     1       2.203  -1.191   0.367  1.00  0.00    -0.243 OA
HETATM    2  C   LIG     1       1.128  -0.560   0.187  1.00  0.00     0.367 A 
HETATM    3  N   LIG     1       1.051   0.850   0.140  1.00  0.00    -0.154 NA
HETATM    4  C   LIG     1      -0.329   1.105  -0.077  1.00  0.00     0.284 A 
HETATM    5  C   LIG     1      -1.137  -0.152  -0.171  1.00  0.00     0.220 A 
HETATM    6  N   LIG     1      -0.131  -1.194   0.009  1.00  0.00    -0.207 NA
HETATM    7  O   LIG     1      -0.805   2.266  -0.178  1.00  0.00    -0.268 OA
ENDROOT
TORSDOF 0
