REMARK  0 active torsions:
REMARK  status: ('A' for Active; 'I' for Inactive)
ROOT
HETATM    1  N   LIG     1      -1.390  -1.044  -0.096  1.00  0.00    -0.064 NA
HETATM    2  C   LIG     1      -0.207  -0.248  -0.037  1.00  0.00     0.233 C 
HETATM    3  N   LIG     1       0.940  -0.801  -0.304  1.00  0.00    -0.144 NA
HETATM    4  C   LIG     1       2.168  -0.121  -0.279  1.00  0.00     0.208 C 
HETATM    5  N   LIG     1       3.182   0.438  -0.258  1.00  0.00    -0.170 NA
HETATM    6  N   LIG     1      -0.311   1.139   0.315  1.00  0.00    -0.064 NA
ENDROOT
TORSDOF 0
