REMARK  0 active torsions:
REMARK  status: ('A' for Active; 'I' for Inactive)
ROOT
HETATM    1  F   LIG     1       2.731  -0.038   0.084  1.00  0.00    -0.204 F 
HETATM    2  C   LIG     1       1.376  -0.019   0.042  1.00  0.00     0.140 A 
HETATM    3  C   LIG     1       0.694   1.202   0.009  1.00  0.00     0.030 A 
HETATM    4  C   LIG     1      -0.704   1.222  -0.034  1.00  0.00     0.002 A 
HETATM    5  C   LIG     1      -1.421   0.020  -0.044  1.00  0.00     0.000 A 
HETATM    6  C   LIG     1      -0.739  -1.201  -0.010  1.00  0.00     0.002 A 
HETATM    7  C   LIG     1       0.659  -1.221   0.033  1.00  0.00     0.030 A 
ENDROOT
TORSDOF 0
