REMARK  1 active torsions:
REMARK  status: ('A' for Active; 'I' for Inactive)
REMARK    1  A    between atoms: C_18  and  O_19 
ROOT
HETATM    1  O   LIG     1      -2.463   1.407  -3.201  1.00  0.00    -0.291 OA
HETATM    2  C   LIG     1      -2.088   0.587  -2.321  1.00  0.00     0.173 C 
HETATM    3  C   LIG     1      -2.980  -0.460  -1.855  1.00  0.00     0.035 C 
HETATM    4  C   LIG     1      -2.717  -1.092  -0.714  1.00  0.00     0.007 C 
HETATM    5  C   LIG     1      -0.682   0.568  -1.836  1.00  0.00     0.075 C 
HETATM    6  C   LIG     1      -0.587   0.400  -0.287  1.00  0.00     0.061 C 
HETATM    7  C   LIG     1      -1.722  -0.560   0.334  1.00  0.00     0.215 C 
HETATM    8  C   LIG     1      -1.133  -1.777   1.092  1.00  0.00     0.041 C 
HETATM    9  C   LIG     1       0.017  -2.401   0.324  1.00  0.00     0.028 C 
HETATM   10  C   LIG     1      -0.874   1.758   0.404  1.00  0.00     0.042 C 
HETATM   11  C   LIG     1      -2.275   1.655   0.948  1.00  0.00     0.251 C 
HETATM   12  N   LIG     1      -2.426   0.266   1.349  1.00  0.00     0.139 N 
HETATM   13  C   LIG     1      -3.828  -0.073   1.655  1.00  0.00     0.286 C 
HETATM   14  C   LIG     1       0.868  -0.055  -0.005  1.00  0.00     0.003 A 
HETATM   15  C   LIG     1       1.139  -1.413   0.277  1.00  0.00    -0.024 A 
HETATM   16  C   LIG     1       2.449  -1.842   0.517  1.00  0.00    -0.002 A 
HETATM   17  C   LIG     1       3.510  -0.947   0.442  1.00  0.00     0.026 A 
HETATM   18  C   LIG     1       3.284   0.395   0.100  1.00  0.00     0.119 A 
HETATM   19  C   LIG     1       1.968   0.836  -0.143  1.00  0.00     0.149 A 
HETATM   20  O   LIG     1       1.752   2.159  -0.534  1.00  0.00    -0.188 OA
ENDROOT
BRANCH  18  21
HETATM   21  O   LIG     1       4.339   1.315  -0.014  1.00  0.00    -0.326 OA
HETATM   22  C   LIG     1       5.712   1.003   0.201  1.00  0.00     0.181 C 
ENDBRANCH  18  21
TORSDOF 1
