REMARK  0 active torsions:
REMARK  status: ('A' for Active; 'I' for Inactive)
ROOT
HETATM    1  C   LIG     1       2.497   0.915   0.913  1.00  0.00     0.030 C 
HETATM    2  C   LIG     1       1.241   0.349   0.242  1.00  0.00     0.093 C 
HETATM    3  C   LIG     1       1.402  -1.178  -0.005  1.00  0.00     0.027 C 
HETATM    4  C   LIG     1       0.141  -1.730  -0.714  1.00  0.00     0.005 C 
HETATM    5  C   LIG     1       0.989   1.058  -1.120  1.00  0.00     0.027 C 
HETATM    6  C   LIG     1      -0.262   0.454  -1.803  1.00  0.00     0.005 C 
HETATM    7  C   LIG     1      -0.899  -0.594  -0.859  1.00  0.00     0.025 C 
HETATM    8  C   LIG     1      -1.111   0.072   0.556  1.00  0.00     0.093 C 
HETATM    9  O   LIG     1       0.120   0.570   1.100  1.00  0.00    -0.364 OA
HETATM   10  C   LIG     1      -2.105   1.250   0.462  1.00  0.00     0.030 C 
HETATM   11  C   LIG     1      -1.700  -0.946   1.556  1.00  0.00     0.030 C 
ENDROOT
TORSDOF 0
