REMARK  4 active torsions:
REMARK  status: ('A' for Active; 'I' for Inactive)
REMARK    1  A    between atoms: C_2  and  C_3 
REMARK    2  A    between atoms: C_2  and  C_8 
REMARK    3  A    between atoms: C_3  and  C_4 
REMARK    4  A    between atoms: C_4  and  C_5 
ROOT
HETATM    1  C   LIG     1       2.946  -1.024  -0.401  1.00  0.00     0.000 C 
HETATM    2  C   LIG     1       2.742  -1.838  -1.716  1.00  0.00     0.000 C 
HETATM    3  C   LIG     1       1.237  -1.918  -1.999  1.00  0.00     0.000 C 
HETATM    4  C   LIG     1       0.624  -0.895  -1.058  1.00  0.00     0.002 C 
HETATM    5  C   LIG     1      -0.922  -0.856  -0.863  1.00  0.00     0.030 C 
HETATM    6  C   LIG     1      -1.731  -2.186  -0.998  1.00  0.00     0.152 C 
HETATM    7  O   LIG     1      -1.193  -3.183  -0.168  1.00  0.00    -0.224 OA
HETATM    8  C   LIG     1      -3.237  -1.997  -0.623  1.00  0.00     0.033 C 
HETATM    9  C   LIG     1      -3.646  -0.510  -0.633  1.00  0.00     0.005 C 
HETATM   10  C   LIG     1      -5.156  -0.242  -0.573  1.00  0.00     0.033 C 
HETATM   11  C   LIG     1      -5.419   1.251  -0.888  1.00  0.00     0.152 C 
HETATM   12  O   LIG     1      -6.782   1.550  -0.735  1.00  0.00    -0.224 OA
HETATM   13  C   LIG     1      -4.548   2.226  -0.054  1.00  0.00     0.033 C 
HETATM   14  C   LIG     1      -3.053   1.824   0.028  1.00  0.00     0.003 C 
HETATM   15  C   LIG     1      -2.851   0.333   0.431  1.00  0.00     0.000 C 
HETATM   16  C   LIG     1      -3.398   0.123   1.880  1.00  0.00     0.000 C 
HETATM   17  C   LIG     1      -1.328  -0.122   0.444  1.00  0.00     0.003 C 
HETATM   18  C   LIG     1      -0.292   0.963   0.826  1.00  0.00     0.000 C 
HETATM   19  C   LIG     1       1.136   0.385   1.071  1.00  0.00     0.000 C 
HETATM   20  C   LIG     1       1.495  -0.882   0.212  1.00  0.00     0.000 C 
HETATM   21  C   LIG     1       1.281  -2.151   1.099  1.00  0.00     0.000 C 
ENDROOT
BRANCH   1  22
HETATM   22  C   LIG     1       3.867   0.227  -0.648  1.00  0.00     0.001 C 
HETATM   23  C   LIG     1       3.240   1.348  -1.507  1.00  0.00     0.000 C 
BRANCH  22  24
HETATM   24  C   LIG     1       4.571   0.720   0.648  1.00  0.00     0.011 C 
BRANCH  24  25
HETATM   25  C   LIG     1       5.605   1.827   0.384  1.00  0.00     0.098 C 
BRANCH  25  26
HETATM   26  C   LIG     1       6.433   2.086   1.605  1.00  0.00     0.185 C 
HETATM   27  O   LIG     1       5.841   2.606   2.755  1.00  0.00    -0.647 OA
HETATM   28  O   LIG     1       7.673   1.850   1.586  1.00  0.00    -0.647 OA
ENDBRANCH  25  26
ENDBRANCH  24  25
ENDBRANCH  22  24
ENDBRANCH   1  22
TORSDOF 4
