REMARK  0 active torsions:
REMARK  status: ('A' for Active; 'I' for Inactive)
ROOT
HETATM    1  O   LIG     1       6.074   0.403  -0.427  1.00  0.00    -0.190 OA
HETATM    2  C   LIG     1       4.687   0.499  -0.339  1.00  0.00     0.131 A 
HETATM    3  C   LIG     1       3.993  -0.124   0.705  1.00  0.00     0.023 A 
HETATM    4  C   LIG     1       2.596  -0.032   0.781  1.00  0.00    -0.019 A 
HETATM    5  C   LIG     1       1.857  -0.668   1.933  1.00  0.00     0.051 C 
HETATM    6  C   LIG     1       0.502  -1.148   1.488  1.00  0.00    -0.030 C 
HETATM    7  C   LIG     1      -0.210  -0.444   0.586  1.00  0.00    -0.044 C 
HETATM    8  C   LIG     1       0.363   0.841  -0.025  1.00  0.00     0.040 C 
HETATM    9  C   LIG     1      -0.387   1.236  -1.342  1.00  0.00     0.009 C 
HETATM   10  C   LIG     1      -1.946   1.137  -1.302  1.00  0.00     0.008 C 
HETATM   11  C   LIG     1      -2.482   0.211  -0.180  1.00  0.00     0.055 C 
HETATM   12  C   LIG     1      -2.756   1.022   1.116  1.00  0.00     0.008 C 
HETATM   13  C   LIG     1      -1.503  -0.952   0.006  1.00  0.00     0.025 C 
HETATM   14  C   LIG     1      -2.307  -2.063   0.689  1.00  0.00     0.012 C 
HETATM   15  C   LIG     1      -3.694  -1.950   0.037  1.00  0.00     0.065 C 
HETATM   16  C   LIG     1      -3.728  -0.550  -0.494  1.00  0.00     0.150 C 
HETATM   17  O   LIG     1      -4.694  -0.072  -1.069  1.00  0.00    -0.296 OA
HETATM   18  C   LIG     1       1.877   0.704  -0.192  1.00  0.00    -0.022 A 
HETATM   19  C   LIG     1       2.594   1.343  -1.225  1.00  0.00    -0.002 A 
HETATM   20  C   LIG     1       3.984   1.229  -1.300  1.00  0.00     0.027 A 
ENDROOT
TORSDOF 0
