REMARK  6 active torsions:
REMARK  status: ('A' for Active; 'I' for Inactive)
REMARK    1  A    between atoms: C_13  and  C_14 
REMARK    2  A    between atoms: C_14  and  C_16 
REMARK    3  A    between atoms: C_16  and  C_17 
REMARK    4  A    between atoms: C_17  and  C_18 
REMARK       I    between atoms: C_18  and  N_19 
REMARK    5  A    between atoms: N_19  and  C_20 
REMARK    6  A    between atoms: C_20  and  C_21 
ROOT
HETATM    1  O   LIG     1      -7.287   2.602  -0.651  1.00  0.00    -0.224 OA
HETATM    2  C   LIG     1      -5.926   2.305  -0.484  1.00  0.00     0.152 C 
HETATM    3  C   LIG     1      -5.354   1.792  -1.826  1.00  0.00     0.033 C 
HETATM    4  C   LIG     1      -3.933   1.185  -1.712  1.00  0.00     0.003 C 
HETATM    5  C   LIG     1      -3.818   0.126  -0.577  1.00  0.00     0.000 C 
HETATM    6  C   LIG     1      -4.736  -1.089  -0.933  1.00  0.00     0.000 C 
HETATM    7  C   LIG     1      -2.347  -0.446  -0.371  1.00  0.00     0.005 C 
HETATM    8  C   LIG     1      -1.487  -0.570  -1.659  1.00  0.00     0.033 C 
HETATM    9  C   LIG     1      -0.043  -1.171  -1.483  1.00  0.00     0.152 C 
HETATM   10  O   LIG     1       0.831  -0.333  -2.180  1.00  0.00    -0.224 OA
HETATM   11  C   LIG     1       0.408  -1.336   0.018  1.00  0.00     0.028 C 
HETATM   12  C   LIG     1      -0.242  -2.655   0.575  1.00  0.00     0.003 C 
HETATM   13  C   LIG     1       1.953  -1.404   0.430  1.00  0.00     0.002 C 
HETATM   14  C   LIG     1       2.105  -0.520   1.695  1.00  0.00     0.000 C 
HETATM   15  C   LIG     1       0.715  -0.032   2.074  1.00  0.00     0.000 C 
HETATM   16  C   LIG     1      -0.052  -0.062   0.763  1.00  0.00     0.005 C 
HETATM   17  C   LIG     1      -1.583   0.250   0.786  1.00  0.00     0.031 C 
HETATM   18  C   LIG     1      -2.324  -0.017   2.137  1.00  0.00     0.152 C 
HETATM   19  O   LIG     1      -1.897   0.926   3.087  1.00  0.00    -0.224 OA
HETATM   20  C   LIG     1      -3.879   0.064   1.997  1.00  0.00     0.033 C 
HETATM   21  C   LIG     1      -4.280   0.851   0.735  1.00  0.00     0.005 C 
HETATM   22  C   LIG     1      -5.748   1.294   0.673  1.00  0.00     0.033 C 
ENDROOT
BRANCH  13  23
HETATM   23  C   LIG     1       3.149  -1.210  -0.570  1.00  0.00     0.001 C 
HETATM   24  C   LIG     1       3.205  -2.313  -1.641  1.00  0.00     0.000 C 
BRANCH  23  25
HETATM   25  C   LIG     1       3.350   0.214  -1.176  1.00  0.00     0.010 C 
BRANCH  25  26
HETATM   26  C   LIG     1       4.804   0.712  -1.079  1.00  0.00     0.090 C 
BRANCH  26  27
HETATM   27  C   LIG     1       5.167   1.133   0.320  1.00  0.00     0.252 C 
HETATM   28  N   LIG     1       6.179   0.457   1.080  1.00  0.00    -0.226 NA
HETATM   29  O   LIG     1       4.544   2.092   0.850  1.00  0.00    -0.271 OA
BRANCH  28  30
HETATM   30  C   LIG     1       7.483   0.084   0.534  1.00  0.00     0.225 C 
BRANCH  30  31
HETATM   31  C   LIG     1       8.501   1.122   0.895  1.00  0.00     0.211 C 
HETATM   32  O   LIG     1       8.401   2.415   0.388  1.00  0.00    -0.646 OA
HETATM   33  O   LIG     1       9.456   0.828   1.660  1.00  0.00    -0.646 OA
ENDBRANCH  30  31
ENDBRANCH  28  30
ENDBRANCH  26  27
ENDBRANCH  25  26
ENDBRANCH  23  25
ENDBRANCH  13  23
TORSDOF 6
