REMARK  0 active torsions:
REMARK  status: ('A' for Active; 'I' for Inactive)
ROOT
HETATM    1  O   LIG     1       0.041  -2.116   1.927  1.00  0.00    -0.218 OA
HETATM    2  C   LIG     1      -0.258  -1.800   0.590  1.00  0.00     0.177 A 
HETATM    3  C   LIG     1      -1.709  -2.220   0.228  1.00  0.00     0.064 A 
HETATM    4  C   LIG     1       0.813  -2.380  -0.361  1.00  0.00     0.184 C 
HETATM    5  O   LIG     1       2.079  -1.736  -0.159  1.00  0.00    -0.326 OA
HETATM    6  C   LIG     1       2.209  -0.372   0.169  1.00  0.00     0.121 A 
HETATM    7  C   LIG     1       1.065   0.394   0.469  1.00  0.00     0.023 A 
HETATM    8  C   LIG     1       1.207   1.721   0.900  1.00  0.00     0.004 A 
HETATM    9  C   LIG     1       2.474   2.306   0.952  1.00  0.00     0.030 A 
HETATM   10  C   LIG     1       3.611   1.562   0.607  1.00  0.00     0.158 A 
HETATM   11  O   LIG     1       4.875   2.148   0.655  1.00  0.00    -0.188 OA
HETATM   12  C   LIG     1       3.482   0.220   0.225  1.00  0.00     0.178 A 
HETATM   13  O   LIG     1       4.627  -0.513  -0.089  1.00  0.00    -0.186 OA
HETATM   14  C   LIG     1      -0.233  -0.306   0.421  1.00  0.00     0.010 A 
HETATM   15  C   LIG     1      -1.401   0.163  -0.008  1.00  0.00    -0.003 A 
HETATM   16  C   LIG     1      -1.759   1.515  -0.489  1.00  0.00     0.030 A 
HETATM   17  C   LIG     1      -3.008   1.741  -0.929  1.00  0.00     0.170 A 
HETATM   18  O   LIG     1      -3.353   3.017  -1.371  1.00  0.00    -0.187 OA
HETATM   19  C   LIG     1      -2.346  -0.925  -0.124  1.00  0.00    -0.016 A 
HETATM   20  C   LIG     1      -3.592  -0.734  -0.560  1.00  0.00     0.040 A 
HETATM   21  C   LIG     1      -4.003   0.631  -0.956  1.00  0.00     0.221 A 
HETATM   22  O   LIG     1      -5.186   0.843  -1.331  1.00  0.00    -0.284 OA
ENDROOT
TORSDOF 0
