REMARK  3 active torsions:
REMARK  status: ('A' for Active; 'I' for Inactive)
REMARK    1  A    between atoms: C_2  and  C_5 
REMARK    2  A    between atoms: C_2  and  C_3 
REMARK    3  A    between atoms: C_5  and  N_6 
ROOT
HETATM    1  N   LIG     1       0.802   0.336  -1.103  1.00  0.00    -0.302 N 
HETATM    2  C   LIG     1       0.703   1.660  -1.380  1.00  0.00     0.180 A 
HETATM    3  N   LIG     1      -0.479   2.203  -0.990  1.00  0.00    -0.206 NA
HETATM    4  C   LIG     1      -0.378   0.028  -0.533  1.00  0.00     0.153 A 
HETATM    5  C   LIG     1      -0.878  -1.184  -0.069  1.00  0.00     0.283 A 
HETATM    6  N   LIG     1      -2.142  -1.203   0.476  1.00  0.00    -0.246 N 
HETATM    7  C   LIG     1      -2.685  -2.457   1.024  1.00  0.00     0.139 C 
HETATM    8  O   LIG     1      -0.188  -2.237  -0.150  1.00  0.00    -0.265 OA
HETATM    9  C   LIG     1      -1.134   1.149  -0.463  1.00  0.00     0.170 A 
HETATM   10  N   LIG     1      -2.384   1.153   0.073  1.00  0.00    -0.263 N 
HETATM   11  C   LIG     1      -2.875  -0.032   0.578  1.00  0.00     0.335 A 
HETATM   12  O   LIG     1      -4.006  -0.046   1.141  1.00  0.00    -0.246 OA
HETATM   13  C   LIG     1      -3.151   2.401   0.183  1.00  0.00     0.137 C 
ENDROOT
BRANCH   1  14
HETATM   14  C   LIG     1       1.946  -0.529  -1.403  1.00  0.00     0.143 C 
BRANCH  14  15
HETATM   15  C   LIG     1       2.750  -0.874  -0.135  1.00  0.00     0.207 C 
HETATM   16  O   LIG     1       3.708  -1.843  -0.472  1.00  0.00    -0.218 OA
BRANCH  15  17
HETATM   17  C   LIG     1       3.458   0.358   0.452  1.00  0.00     0.217 C 
HETATM   18  O   LIG     1       2.526   1.214   1.053  1.00  0.00    -0.218 OA
ENDBRANCH  15  17
ENDBRANCH  14  15
ENDBRANCH   1  14
TORSDOF 3
