REMARK  1 active torsions:
REMARK  status: ('A' for Active; 'I' for Inactive)
REMARK    1  A    between atoms: C_8  and  C_9 
ROOT
HETATM    1  C   LIG     1       0.437  -0.216  -0.208  1.00  0.00     0.130 A 
HETATM    2  C   LIG     1      -0.163  -1.305  -0.863  1.00  0.00     0.192 A 
HETATM    3  O   LIG     1       0.625  -2.213  -1.575  1.00  0.00    -0.185 OA
HETATM    4  C   LIG     1      -1.557  -1.449  -0.799  1.00  0.00     0.227 A 
HETATM    5  C   LIG     1      -2.323  -0.496  -0.096  1.00  0.00     0.089 A 
HETATM    6  C   LIG     1      -3.733  -0.566   0.015  1.00  0.00     0.138 A 
HETATM    7  O   LIG     1      -4.449  -1.610  -0.573  1.00  0.00    -0.190 OA
HETATM    8  C   LIG     1      -4.425   0.425   0.727  1.00  0.00     0.055 A 
HETATM    9  C   LIG     1      -3.737   1.483   1.326  1.00  0.00     0.135 A 
HETATM   10  O   LIG     1      -4.449   2.455   2.026  1.00  0.00    -0.190 OA
HETATM   11  C   LIG     1      -2.345   1.558   1.220  1.00  0.00     0.052 A 
HETATM   12  C   LIG     1      -1.636   0.579   0.517  1.00  0.00     0.107 A 
HETATM   13  O   LIG     1      -0.314   0.672   0.434  1.00  0.00    -0.305 OA
HETATM   14  O   LIG     1      -2.107  -2.427  -1.375  1.00  0.00    -0.284 OA
ENDROOT
BRANCH   1  15
HETATM   15  C   LIG     1       1.898  -0.011  -0.243  1.00  0.00     0.051 A 
HETATM   16  C   LIG     1       2.807  -0.966   0.272  1.00  0.00     0.135 A 
HETATM   17  O   LIG     1       2.376  -2.132   0.907  1.00  0.00    -0.190 OA
HETATM   18  C   LIG     1       4.184  -0.735   0.172  1.00  0.00     0.055 A 
HETATM   19  C   LIG     1       4.668   0.445  -0.401  1.00  0.00     0.133 A 
HETATM   20  C   LIG     1       3.769   1.405  -0.878  1.00  0.00     0.028 A 
HETATM   21  O   LIG     1       6.043   0.655  -0.484  1.00  0.00    -0.190 OA
HETATM   22  C   LIG     1       2.393   1.181  -0.796  1.00  0.00     0.006 A 
ENDBRANCH   1  15
TORSDOF 1
