REMARK  0 active torsions:
REMARK  status: ('A' for Active; 'I' for Inactive)
ROOT
HETATM    1  C   LIG     1      -1.801  -0.760  -1.834  1.00  0.00     0.000 C 
HETATM    2  C   LIG     1      -1.458   0.115  -0.584  1.00  0.00     0.000 C 
HETATM    3  C   LIG     1      -1.923  -0.557   0.750  1.00  0.00     0.003 C 
HETATM    4  C   LIG     1      -1.180  -1.874   1.027  1.00  0.00     0.000 C 
HETATM    5  C   LIG     1       0.330  -1.634   1.098  1.00  0.00     0.000 C 
HETATM    6  C   LIG     1      -2.233   1.466  -0.723  1.00  0.00     0.003 C 
HETATM    7  C   LIG     1      -3.763   1.301  -0.656  1.00  0.00     0.033 C 
HETATM    8  C   LIG     1      -4.195   0.582   0.631  1.00  0.00     0.152 C 
HETATM    9  O   LIG     1      -5.579   0.356   0.587  1.00  0.00    -0.224 OA
HETATM   10  C   LIG     1      -3.452  -0.756   0.811  1.00  0.00     0.033 C 
HETATM   11  C   LIG     1       0.115   0.332  -0.560  1.00  0.00     0.000 C 
HETATM   12  C   LIG     1       0.877  -0.984  -0.194  1.00  0.00     0.000 C 
HETATM   13  C   LIG     1       2.427  -0.815  -0.126  1.00  0.00     0.007 C 
HETATM   14  C   LIG     1       3.095  -0.904  -1.510  1.00  0.00     0.008 C 
HETATM   15  C   LIG     1       4.460  -0.245  -1.357  1.00  0.00     0.065 C 
HETATM   16  C   LIG     1       4.292   0.641  -0.179  1.00  0.00     0.150 C 
HETATM   17  O   LIG     1       5.151   1.436   0.173  1.00  0.00    -0.296 OA
HETATM   18  C   LIG     1       2.967   0.495   0.511  1.00  0.00     0.051 C 
HETATM   19  C   LIG     1       3.181   0.366   2.035  1.00  0.00     0.007 C 
HETATM   20  C   LIG     1       2.104   1.730   0.164  1.00  0.00     0.007 C 
HETATM   21  C   LIG     1       0.604   1.491   0.344  1.00  0.00     0.000 C 
ENDROOT
TORSDOF 0
