REMARK  1 active torsions:
REMARK  status: ('A' for Active; 'I' for Inactive)
REMARK    1  A    between atoms: C_7  and  C_8 
ROOT
HETATM    1  C   LIG     1       1.989   1.675   0.886  1.00  0.00     0.285 C 
HETATM    2  N   LIG     1       0.810   0.790   0.894  1.00  0.00     0.136 N 
HETATM    3  C   LIG     1       1.174  -0.629   0.875  1.00  0.00     0.222 C 
HETATM    4  C   LIG     1       1.505  -0.967  -0.587  1.00  0.00     0.035 C 
HETATM    5  C   LIG     1       0.716   0.063  -1.394  1.00  0.00     0.036 C 
HETATM    6  C   LIG     1       0.006   0.914  -0.326  1.00  0.00     0.232 C 
HETATM    7  C   LIG     1      -1.404   0.354   0.026  1.00  0.00     0.149 C 
HETATM    8  C   LIG     1      -1.330  -1.141   0.499  1.00  0.00     0.166 C 
HETATM    9  O   LIG     1      -1.335  -2.019  -0.599  1.00  0.00    -0.223 OA
HETATM   10  C   LIG     1      -0.066  -1.414   1.370  1.00  0.00     0.067 C 
ENDROOT
BRANCH   7  11
HETATM   11  C   LIG     1      -2.412   0.627  -1.073  1.00  0.00     0.189 C 
HETATM   12  O   LIG     1      -2.720   1.938  -1.428  1.00  0.00    -0.647 OA
HETATM   13  O   LIG     1      -3.011  -0.313  -1.661  1.00  0.00    -0.647 OA
ENDBRANCH   7  11
TORSDOF 1
