REMARK  0 active torsions:
REMARK  status: ('A' for Active; 'I' for Inactive)
ROOT
HETATM    1  C   LIG     1      -1.241  -0.482   2.066  1.00  0.00     0.009 C 
HETATM    2  C   LIG     1      -1.322  -0.821   0.560  1.00  0.00     0.036 C 
HETATM    3  C   LIG     1      -0.438  -2.078   0.240  1.00  0.00     0.008 C 
HETATM    4  C   LIG     1       1.102  -1.846   0.268  1.00  0.00     0.004 C 
HETATM    5  C   LIG     1       1.464  -0.368   0.076  1.00  0.00     0.041 C 
HETATM    6  C   LIG     1       2.859  -0.019  -0.468  1.00  0.00     0.089 C 
HETATM    7  C   LIG     1       3.915   0.091   0.636  1.00  0.00     0.011 C 
HETATM    8  C   LIG     1      -2.772  -1.178   0.283  1.00  0.00    -0.020 C 
HETATM    9  C   LIG     1      -3.665  -0.243  -0.040  1.00  0.00     0.037 C 
HETATM   10  C   LIG     1      -3.216   1.114  -0.362  1.00  0.00     0.191 C 
HETATM   11  C   LIG     1      -1.782   1.351  -0.653  1.00  0.00     0.012 C 
HETATM   12  C   LIG     1      -1.400   2.561  -1.470  1.00  0.00     0.034 C 
HETATM   13  C   LIG     1      -0.878   0.400  -0.291  1.00  0.00    -0.015 C 
HETATM   14  C   LIG     1       0.510   0.310  -0.900  1.00  0.00     0.143 C 
HETATM   15  O   LIG     1       1.186   1.513  -1.225  1.00  0.00    -0.300 OA
HETATM   16  C   LIG     1       2.550   1.301  -1.096  1.00  0.00     0.272 C 
HETATM   17  O   LIG     1       3.413   2.125  -1.498  1.00  0.00    -0.264 OA
HETATM   18  O   LIG     1      -4.063   2.043  -0.456  1.00  0.00    -0.287 OA
ENDROOT
TORSDOF 0
