REMARK  3 active torsions:
REMARK  status: ('A' for Active; 'I' for Inactive)
REMARK    1  A    between atoms: C_2  and  C_3 
REMARK    2  A    between atoms: C_4  and  C_5 
REMARK    3  A    between atoms: C_10  and  C_11 
ROOT
HETATM    1  C   LIG     1       1.720   0.423   0.417  1.00  0.00     0.064 A 
HETATM    2  C   LIG     1       0.691   0.021  -0.476  1.00  0.00     0.006 A 
HETATM    3  C   LIG     1       0.871   0.180  -1.861  1.00  0.00     0.000 A 
HETATM    4  C   LIG     1       2.050   0.727  -2.365  1.00  0.00     0.000 A 
HETATM    5  C   LIG     1       3.068   1.112  -1.496  1.00  0.00     0.000 A 
HETATM    6  C   LIG     1       2.908   0.960  -0.117  1.00  0.00     0.006 A 
ENDROOT
BRANCH   2   7
HETATM    7  C   LIG     1      -0.554  -0.631  -0.011  1.00  0.00     0.006 A 
HETATM    8  C   LIG     1      -0.471  -1.959   0.440  1.00  0.00     0.000 A 
HETATM    9  C   LIG     1      -1.618  -2.650   0.829  1.00  0.00     0.000 A 
HETATM   10  C   LIG     1      -2.863  -2.027   0.765  1.00  0.00     0.000 A 
HETATM   11  C   LIG     1      -2.965  -0.708   0.318  1.00  0.00     0.006 A 
HETATM   12  C   LIG     1      -1.819   0.014  -0.068  1.00  0.00     0.064 A 
BRANCH  12  13
HETATM   13  C   LIG     1      -1.975   1.430  -0.494  1.00  0.00     0.211 C 
HETATM   14  O   LIG     1      -0.900   2.313  -0.451  1.00  0.00    -0.644 OA
HETATM   15  O   LIG     1      -3.100   1.854  -0.874  1.00  0.00    -0.644 OA
ENDBRANCH  12  13
ENDBRANCH   2   7
BRANCH   1  16
HETATM   16  C   LIG     1       1.581   0.323   1.893  1.00  0.00     0.211 C 
HETATM   17  O   LIG     1       2.607   0.340   2.627  1.00  0.00    -0.644 OA
HETATM   18  O   LIG     1       0.326   0.240   2.490  1.00  0.00    -0.644 OA
ENDBRANCH   1  16
TORSDOF 3
