REMARK  3 active torsions:
REMARK  status: ('A' for Active; 'I' for Inactive)
REMARK    1  A    between atoms: C_10  and  O_11 
REMARK    2  A    between atoms: C_13  and  C_14 
REMARK    3  A    between atoms: C_14  and  C_15 
ROOT
HETATM    1  O   LIG     1      -1.660  -4.247  -0.499  1.00  0.00    -0.259 OA
HETATM    2  C   LIG     1      -2.001  -3.042  -0.635  1.00  0.00     0.300 A 
HETATM    3  O   LIG     1      -1.236  -2.081  -0.126  1.00  0.00    -0.273 OA
HETATM    4  C   LIG     1      -1.535  -0.786  -0.232  1.00  0.00     0.102 A 
HETATM    5  C   LIG     1      -2.707  -0.392  -0.915  1.00  0.00     0.023 A 
HETATM    6  C   LIG     1      -3.532  -1.383  -1.459  1.00  0.00     0.007 A 
HETATM    7  C   LIG     1      -3.177  -2.723  -1.319  1.00  0.00     0.069 A 
HETATM    8  C   LIG     1      -3.021   0.964  -1.043  1.00  0.00     0.004 A 
HETATM    9  C   LIG     1      -2.172   1.932  -0.507  1.00  0.00     0.024 A 
HETATM   10  C   LIG     1      -0.996   1.560   0.174  1.00  0.00     0.092 A 
HETATM   11  C   LIG     1      -0.686   0.190   0.331  1.00  0.00     0.027 A 
ENDROOT
BRANCH  11  12
HETATM   12  C   LIG     1       0.585  -0.226   1.036  1.00  0.00     0.056 C 
BRANCH  12  13
HETATM   13  C   LIG     1       1.735  -0.301   0.062  1.00  0.00    -0.030 C 
HETATM   14  C   LIG     1       2.988  -0.648   0.425  1.00  0.00    -0.048 C 
HETATM   15  C   LIG     1       3.330  -0.990   1.855  1.00  0.00     0.026 C 
HETATM   16  C   LIG     1       4.061  -0.691  -0.632  1.00  0.00     0.026 C 
ENDBRANCH  12  13
ENDBRANCH  11  12
BRANCH  10  17
HETATM   17  O   LIG     1      -0.116   2.520   0.701  1.00  0.00    -0.328 OA
HETATM   18  C   LIG     1      -0.303   3.929   0.607  1.00  0.00     0.181 C 
ENDBRANCH  10  17
TORSDOF 3
