REMARK  4 active torsions:
REMARK  status: ('A' for Active; 'I' for Inactive)
REMARK       I    between atoms: C_2  and  N_6 
REMARK       I    between atoms: C_2  and  N_3 
REMARK    1  A    between atoms: N_6  and  C_7 
REMARK    2  A    between atoms: C_9  and  O_10 
REMARK    3  A    between atoms: O_10  and  C_11 
REMARK       I    between atoms: C_11  and  N_12 
REMARK    4  A    between atoms: N_12  and  C_13 
ROOT
HETATM    1  C   LIG     1      -1.902   0.681   0.167  1.00  0.00     0.088 A 
HETATM    2  C   LIG     1      -0.607   0.148   0.258  1.00  0.00     0.044 A 
HETATM    3  C   LIG     1       0.488   0.967   0.562  1.00  0.00     0.106 A 
HETATM    4  C   LIG     1       0.286   2.349   0.731  1.00  0.00     0.025 A 
HETATM    5  C   LIG     1      -0.996   2.890   0.619  1.00  0.00     0.004 A 
HETATM    6  C   LIG     1      -2.087   2.064   0.337  1.00  0.00     0.019 A 
ENDROOT
BRANCH   3   7
HETATM    7  O   LIG     1       1.758   0.379   0.642  1.00  0.00    -0.258 OA
BRANCH   7   8
HETATM    8  C   LIG     1       2.826   0.848   1.418  1.00  0.00     0.388 C 
HETATM    9  N   LIG     1       4.160   0.367   1.193  1.00  0.00    -0.216 NA
HETATM   10  O   LIG     1       2.620   1.661   2.360  1.00  0.00    -0.236 OA
BRANCH   9  11
HETATM   11  C   LIG     1       4.550  -0.583   0.133  1.00  0.00     0.090 C 
HETATM   12  C   LIG     1       4.219  -0.000  -1.255  1.00  0.00     0.025 C 
HETATM   13  C   LIG     1       3.833  -1.933   0.334  1.00  0.00     0.025 C 
HETATM   14  C   LIG     1       6.072  -0.823   0.211  1.00  0.00     0.025 C 
ENDBRANCH   9  11
ENDBRANCH   7   8
ENDBRANCH   3   7
BRANCH   1  15
HETATM   15  N   LIG     1      -3.001  -0.188  -0.159  1.00  0.00    -0.193 NA
HETATM   16  C   LIG     1      -4.346   0.015   0.313  1.00  0.00     0.346 C 
HETATM   17  O   LIG     1      -4.549   0.757   1.313  1.00  0.00    -0.245 OA
HETATM   18  N   LIG     1      -5.462  -0.644  -0.322  1.00  0.00    -0.297 N 
HETATM   19  C   LIG     1      -6.804  -0.486   0.247  1.00  0.00     0.130 C 
HETATM   20  C   LIG     1      -5.269  -1.430  -1.544  1.00  0.00     0.130 C 
ENDBRANCH   1  15
TORSDOF 4
