REMARK  3 active torsions:
REMARK  status: ('A' for Active; 'I' for Inactive)
REMARK    1  A    between atoms: C_2  and  C_3 
REMARK    2  A    between atoms: C_2  and  C_13 
REMARK    3  A    between atoms: C_18  and  C_19 
ROOT
HETATM    1  O   LIG     1      -1.444  -1.410  -2.845  1.00  0.00    -0.216 OA
HETATM    2  C   LIG     1      -1.151  -0.436  -1.867  1.00  0.00     0.206 C 
ENDROOT
BRANCH   2   3
HETATM    3  C   LIG     1      -1.894  -0.759  -0.570  1.00  0.00     0.013 A 
HETATM    4  C   LIG     1      -1.968  -2.109  -0.164  1.00  0.00     0.019 A 
HETATM    5  C   LIG     1      -2.636  -2.463   1.003  1.00  0.00     0.099 A 
HETATM    6  N   LIG     1      -3.238  -1.516   1.759  1.00  0.00    -0.244 NA
HETATM    7  C   LIG     1      -3.222  -0.204   1.413  1.00  0.00     0.081 A 
HETATM    8  C   LIG     1      -2.558   0.222   0.229  1.00  0.00     0.016 A 
HETATM    9  C   LIG     1      -3.872   0.721   2.237  1.00  0.00     0.019 A 
HETATM   10  C   LIG     1      -2.595   1.601  -0.091  1.00  0.00     0.001 A 
HETATM   11  C   LIG     1      -3.249   2.511   0.744  1.00  0.00     0.000 A 
HETATM   12  C   LIG     1      -3.883   2.074   1.905  1.00  0.00     0.002 A 
ENDBRANCH   2   3
BRANCH   2  13
HETATM   13  C   LIG     1       0.394  -0.215  -1.742  1.00  0.00     0.254 C 
HETATM   14  C   LIG     1       0.843   1.165  -1.190  1.00  0.00     0.037 C 
HETATM   15  C   LIG     1       2.187   0.981  -0.451  1.00  0.00     0.010 C 
HETATM   16  C   LIG     1       3.145   0.152  -1.346  1.00  0.00     0.036 C 
HETATM   17  C   LIG     1       1.883   0.177   0.834  1.00  0.00     0.056 C 
HETATM   18  C   LIG     1       2.547  -1.269  -1.556  1.00  0.00     0.250 C 
HETATM   19  N   LIG     1       1.143  -1.323  -1.068  1.00  0.00     0.138 N 
HETATM   20  C   LIG     1       1.193  -1.157   0.416  1.00  0.00     0.255 C 
BRANCH  17  21
HETATM   21  C   LIG     1       3.128  -0.052   1.667  1.00  0.00    -0.024 C 
HETATM   22  C   LIG     1       3.744   0.957   2.291  1.00  0.00    -0.005 C 
ENDBRANCH  17  21
ENDBRANCH   2  13
TORSDOF 3
