REMARK  3 active torsions:
REMARK  status: ('A' for Active; 'I' for Inactive)
REMARK    1  A    between atoms: C_2  and  C_13 
REMARK    2  A    between atoms: C_2  and  C_3 
REMARK    3  A    between atoms: C_10  and  C_11 
ROOT
HETATM    1  O   LIG     1      -0.811   0.826  -1.025  1.00  0.00    -0.216 OA
HETATM    2  C   LIG     1      -0.990  -0.454  -0.473  1.00  0.00     0.206 C 
ENDROOT
BRANCH   2   3
HETATM    3  C   LIG     1      -2.178  -0.414   0.497  1.00  0.00     0.013 A 
HETATM    4  C   LIG     1      -2.033  -0.736   1.865  1.00  0.00     0.019 A 
HETATM    5  C   LIG     1      -3.121  -0.660   2.731  1.00  0.00     0.099 A 
HETATM    6  N   LIG     1      -4.339  -0.289   2.271  1.00  0.00    -0.244 NA
HETATM    7  C   LIG     1      -4.549   0.010   0.965  1.00  0.00     0.081 A 
HETATM    8  C   LIG     1      -5.835   0.372   0.547  1.00  0.00     0.019 A 
HETATM    9  C   LIG     1      -3.479  -0.055   0.033  1.00  0.00     0.016 A 
HETATM   10  C   LIG     1      -6.082   0.663  -0.794  1.00  0.00     0.002 A 
HETATM   11  C   LIG     1      -5.048   0.589  -1.726  1.00  0.00     0.000 A 
HETATM   12  C   LIG     1      -3.759   0.231  -1.324  1.00  0.00     0.001 A 
ENDBRANCH   2   3
BRANCH   2  13
HETATM   13  C   LIG     1       0.355  -1.006   0.100  1.00  0.00     0.254 C 
HETATM   14  C   LIG     1       1.425  -1.277  -1.001  1.00  0.00     0.036 C 
HETATM   15  C   LIG     1       2.784  -0.726  -0.530  1.00  0.00     0.006 C 
HETATM   16  C   LIG     1       3.107  -1.370   0.838  1.00  0.00     0.035 C 
HETATM   17  C   LIG     1       2.622   0.810  -0.370  1.00  0.00     0.034 C 
HETATM   18  C   LIG     1       2.003  -0.988   1.861  1.00  0.00     0.250 C 
HETATM   19  N   LIG     1       0.935  -0.186   1.211  1.00  0.00     0.138 N 
HETATM   20  C   LIG     1       1.556   1.078   0.734  1.00  0.00     0.250 C 
BRANCH  17  21
HETATM   21  C   LIG     1       3.942   1.558  -0.066  1.00  0.00     0.002 C 
HETATM   22  C   LIG     1       4.975   1.431  -1.186  1.00  0.00     0.000 C 
ENDBRANCH  17  21
ENDBRANCH   2  13
TORSDOF 3
