REMARK  0 active torsions:
REMARK  status: ('A' for Active; 'I' for Inactive)
ROOT
HETATM    1  O   LIG     1       2.475   2.123   1.211  1.00  0.00    -0.267 OA
HETATM    2  C   LIG     1       2.251   0.987   0.709  1.00  0.00     0.261 A 
HETATM    3  N   LIG     1       1.026   0.695   0.154  1.00  0.00    -0.299 N 
HETATM    4  C   LIG     1       0.003   1.770   0.111  1.00  0.00     0.111 C 
HETATM    5  C   LIG     1      -1.394   1.305  -0.360  1.00  0.00     0.059 C 
HETATM    6  C   LIG     1      -2.211   0.651   0.778  1.00  0.00     0.292 C 
HETATM    7  N   LIG     1      -1.585  -0.596   1.244  1.00  0.00     0.340 N 
HETATM    8  C   LIG     1      -1.409  -1.546   0.134  1.00  0.00     0.296 C 
HETATM    9  C   LIG     1      -0.544  -0.923  -0.979  1.00  0.00     0.075 C 
HETATM   10  C   LIG     1      -1.242   0.323  -1.519  1.00  0.00     0.012 C 
HETATM   11  C   LIG     1       0.810  -0.545  -0.417  1.00  0.00     0.042 A 
HETATM   12  C   LIG     1       1.826  -1.512  -0.409  1.00  0.00     0.013 A 
HETATM   13  C   LIG     1       3.058  -1.216   0.161  1.00  0.00     0.006 A 
HETATM   14  C   LIG     1       3.274   0.035   0.723  1.00  0.00     0.061 A 
ENDROOT
TORSDOF 0
