REMARK  0 active torsions:
REMARK  status: ('A' for Active; 'I' for Inactive)
ROOT
HETATM    1  C   LIG     1       3.742   1.052  -0.239  1.00  0.00     0.002 A 
HETATM    2  C   LIG     1       3.813  -0.286  -0.637  1.00  0.00    -0.000 A 
HETATM    3  C   LIG     1       2.652  -1.062  -0.704  1.00  0.00     0.002 A 
HETATM    4  C   LIG     1       1.407  -0.503  -0.373  1.00  0.00     0.047 A 
HETATM    5  C   LIG     1       0.159  -1.359  -0.436  1.00  0.00     0.262 A 
HETATM    6  O   LIG     1       0.279  -2.409   0.487  1.00  0.00    -0.193 OA
HETATM    7  N   LIG     1      -1.040  -0.571  -0.130  1.00  0.00    -0.308 N 
HETATM    8  C   LIG     1      -2.404  -1.063  -0.150  1.00  0.00     0.108 A 
HETATM    9  C   LIG     1      -3.295   0.144   0.216  1.00  0.00     0.065 A 
HETATM   10  C   LIG     1      -2.364   1.328   0.550  1.00  0.00     0.210 A 
HETATM   11  O   LIG     1      -2.477   1.674   1.905  1.00  0.00    -0.215 OA
HETATM   12  C   LIG     1      -1.020   0.781   0.268  1.00  0.00     0.149 A 
HETATM   13  N   LIG     1       0.081   1.459   0.344  1.00  0.00    -0.231 NA
HETATM   14  C   LIG     1       1.339   0.853   0.024  1.00  0.00     0.083 A 
HETATM   15  C   LIG     1       2.508   1.620   0.089  1.00  0.00     0.019 A 
ENDROOT
TORSDOF 0
