REMARK  0 active torsions:
REMARK  status: ('A' for Active; 'I' for Inactive)
ROOT
HETATM    1  O   LIG     1      -1.095  -2.274   0.835  1.00  0.00    -0.218 OA
HETATM    2  C   LIG     1      -0.487  -1.017   0.677  1.00  0.00     0.218 C 
HETATM    3  C   LIG     1      -1.444  -0.100  -0.109  1.00  0.00     0.215 C 
HETATM    4  O   LIG     1      -2.635   0.059   0.619  1.00  0.00    -0.218 OA
HETATM    5  C   LIG     1      -0.806   1.278  -0.381  1.00  0.00     0.188 C 
HETATM    6  O   LIG     1      -0.644   1.979   0.827  1.00  0.00    -0.221 OA
HETATM    7  C   LIG     1       0.546   1.121  -1.103  1.00  0.00     0.071 C 
HETATM    8  C   LIG     1       1.510   0.191  -0.342  1.00  0.00     0.188 C 
HETATM    9  O   LIG     1       1.910   0.780   0.871  1.00  0.00    -0.221 OA
HETATM   10  C   LIG     1       0.855  -1.176  -0.073  1.00  0.00     0.215 C 
HETATM   11  O   LIG     1       1.740  -1.966   0.682  1.00  0.00    -0.218 OA
ENDROOT
TORSDOF 0
