REMARK  2 active torsions:
REMARK  status: ('A' for Active; 'I' for Inactive)
REMARK    1  A    between atoms: C_2  and  C_5 
REMARK    2  A    between atoms: C_5  and  C_7 
ROOT
HETATM    1  C   LIG     1      -1.489  -0.227  -1.397  1.00  0.00     0.033 C 
HETATM    2  C   LIG     1      -1.214   0.038   0.102  1.00  0.00     0.127 C 
HETATM    3  O   LIG     1      -2.057  -0.783   0.880  1.00  0.00    -0.226 OA
HETATM    4  C   LIG     1      -1.553   1.512   0.427  1.00  0.00     0.033 C 
ENDROOT
BRANCH   2   5
HETATM    5  C   LIG     1       0.273  -0.293   0.493  1.00  0.00     0.028 C 
HETATM    6  C   LIG     1       0.575  -1.803   0.370  1.00  0.00     0.003 C 
BRANCH   5   7
HETATM    7  C   LIG     1       1.329   0.535  -0.293  1.00  0.00     0.002 C 
HETATM    8  C   LIG     1       2.735   0.425   0.301  1.00  0.00     0.000 C 
ENDBRANCH   5   7
ENDBRANCH   2   5
TORSDOF 2
