REMARK  2 active torsions:
REMARK  status: ('A' for Active; 'I' for Inactive)
REMARK    1  A    between atoms: C_2  and  C_6 
REMARK    2  A    between atoms: C_2  and  C_3 
ROOT
HETATM    1  C   LIG     1      -0.115   0.059   0.016  1.00  0.00     0.006 A 
HETATM    2  C   LIG     1      -1.172   0.838   0.524  1.00  0.00     0.000 A 
HETATM    3  C   LIG     1      -2.466   0.698   0.011  1.00  0.00     0.000 A 
HETATM    4  C   LIG     1      -2.719  -0.220  -1.010  1.00  0.00     0.000 A 
HETATM    5  C   LIG     1      -1.679  -1.001  -1.521  1.00  0.00     0.000 A 
HETATM    6  C   LIG     1      -0.384  -0.865  -1.012  1.00  0.00     0.000 A 
ENDROOT
BRANCH   1   7
HETATM    7  C   LIG     1       1.265   0.197   0.554  1.00  0.00     0.064 C 
HETATM    8  C   LIG     1       1.762   1.411   0.822  1.00  0.00     0.006 C 
BRANCH   7   9
HETATM    9  C   LIG     1       2.076  -1.019   0.815  1.00  0.00     0.211 C 
HETATM   10  O   LIG     1       3.470  -0.994   0.781  1.00  0.00    -0.644 OA
HETATM   11  O   LIG     1       1.498  -2.110   1.065  1.00  0.00    -0.644 OA
ENDBRANCH   7   9
ENDBRANCH   1   7
TORSDOF 2
