REMARK  3 active torsions:
REMARK  status: ('A' for Active; 'I' for Inactive)
REMARK    1  A    between atoms: C_2  and  C_3 
REMARK       I    between atoms: C_2  and  N_9 
REMARK    2  A    between atoms: N_9  and  C_10 
REMARK    3  A    between atoms: C_10  and  C_11 
ROOT
HETATM    1  O   LIG     1      -0.895   0.127   1.734  1.00  0.00    -0.266 OA
HETATM    2  C   LIG     1      -0.459  -0.220   0.601  1.00  0.00     0.275 C 
HETATM    3  N   LIG     1      -1.336  -0.889  -0.321  1.00  0.00    -0.223 NA
ENDROOT
BRANCH   2   4
HETATM    4  C   LIG     1       0.946   0.090   0.240  1.00  0.00     0.058 A 
HETATM    5  C   LIG     1       1.613   1.157   0.870  1.00  0.00     0.005 A 
HETATM    6  C   LIG     1       2.939   1.457   0.542  1.00  0.00     0.000 A 
HETATM    7  C   LIG     1       3.615   0.693  -0.411  1.00  0.00     0.000 A 
HETATM    8  C   LIG     1       2.968  -0.376  -1.035  1.00  0.00     0.000 A 
HETATM    9  C   LIG     1       1.642  -0.680  -0.711  1.00  0.00     0.005 A 
ENDBRANCH   2   4
BRANCH   3  10
HETATM   10  C   LIG     1      -2.678  -1.328   0.059  1.00  0.00     0.226 C 
BRANCH  10  11
HETATM   11  C   LIG     1      -3.624  -0.169   0.157  1.00  0.00     0.211 C 
HETATM   12  O   LIG     1      -3.216   1.115  -0.193  1.00  0.00    -0.646 OA
HETATM   13  O   LIG     1      -4.805  -0.365   0.549  1.00  0.00    -0.646 OA
ENDBRANCH  10  11
ENDBRANCH   3  10
TORSDOF 3
