REMARK  0 active torsions:
REMARK  status: ('A' for Active; 'I' for Inactive)
ROOT
HETATM    1  C   LIG     1       0.072  -0.652  -0.204  1.00  0.00    -0.026 A 
HETATM    2  C   LIG     1       1.301  -1.300  -0.357  1.00  0.00    -0.004 A 
HETATM    3  C   LIG     1       2.478  -0.587  -0.080  1.00  0.00    -0.000 A 
HETATM    4  C   LIG     1       2.410   0.752   0.343  1.00  0.00    -0.000 A 
HETATM    5  C   LIG     1       1.165   1.383   0.490  1.00  0.00    -0.004 A 
HETATM    6  C   LIG     1       0.006   0.655   0.208  1.00  0.00    -0.026 A 
HETATM    7  C   LIG     1      -1.390   1.140   0.303  1.00  0.00     0.026 A 
HETATM    8  C   LIG     1      -2.238  -0.076  -0.120  1.00  0.00     0.009 A 
HETATM    9  C   LIG     1      -1.269  -1.230  -0.446  1.00  0.00     0.026 A 
ENDROOT
TORSDOF 0
