REMARK  0 active torsions:
REMARK  status: ('A' for Active; 'I' for Inactive)
ROOT
HETATM    1  C   LIG     1      -0.155  -0.601  -0.116  1.00  0.00    -0.003 A 
HETATM    2  C   LIG     1       0.889  -1.504  -0.323  1.00  0.00    -0.003 A 
HETATM    3  C   LIG     1       2.209  -1.026  -0.262  1.00  0.00    -0.000 A 
HETATM    4  C   LIG     1       2.460   0.335   0.004  1.00  0.00     0.002 A 
HETATM    5  C   LIG     1       1.390   1.223   0.209  1.00  0.00     0.018 A 
HETATM    6  C   LIG     1       0.092   0.718   0.141  1.00  0.00     0.072 A 
HETATM    7  N   LIG     1      -1.103   1.446   0.317  1.00  0.00    -0.271 NA
HETATM    8  C   LIG     1      -2.233   0.533   0.164  1.00  0.00     0.130 A 
HETATM    9  C   LIG     1      -1.621  -0.861  -0.131  1.00  0.00     0.054 A 
ENDROOT
TORSDOF 0
