REMARK  1 active torsions:
REMARK  status: ('A' for Active; 'I' for Inactive)
REMARK    1  A    between atoms: C_2  and  C_3 
ROOT
HETATM    1  C   LIG     1       0.612  -0.333  -0.052  1.00  0.00    -0.021 A 
HETATM    2  C   LIG     1      -0.054   0.892   0.132  1.00  0.00     0.023 A 
HETATM    3  C   LIG     1      -1.452   0.956   0.148  1.00  0.00     0.127 A 
HETATM    4  O   LIG     1      -2.056   2.201   0.334  1.00  0.00    -0.191 OA
HETATM    5  C   LIG     1      -2.211  -0.224  -0.022  1.00  0.00     0.004 A 
HETATM    6  C   LIG     1      -3.714  -0.192  -0.011  1.00  0.00     0.033 C 
HETATM    7  C   LIG     1      -1.544  -1.446  -0.206  1.00  0.00    -0.003 A 
HETATM    8  C   LIG     1      -0.149  -1.500  -0.221  1.00  0.00    -0.004 A 
ENDROOT
BRANCH   1   9
HETATM    9  C   LIG     1       2.128  -0.406  -0.070  1.00  0.00     0.022 C 
HETATM   10  C   LIG     1       2.719   0.044   1.271  1.00  0.00     0.005 C 
HETATM   11  C   LIG     1       2.707   0.412  -1.230  1.00  0.00     0.005 C 
ENDBRANCH   1   9
TORSDOF 1
