REMARK  4 active torsions:
REMARK  status: ('A' for Active; 'I' for Inactive)
REMARK    1  A    between atoms: C_14  and  C_16 
REMARK    2  A    between atoms: C_16  and  C_17 
REMARK    3  A    between atoms: C_17  and  O_18 
REMARK    4  A    between atoms: O_18  and  C_19 
ROOT
HETATM    1  O   LIG     1      -6.551   1.631   0.972  1.00  0.00    -0.291 OA
HETATM    2  C   LIG     1      -5.378   1.436   0.559  1.00  0.00     0.172 C 
HETATM    3  C   LIG     1      -4.381   2.555   0.612  1.00  0.00     0.070 C 
HETATM    4  C   LIG     1      -2.939   2.034   0.513  1.00  0.00     0.012 C 
HETATM    5  C   LIG     1      -2.750   1.002  -0.643  1.00  0.00     0.022 C 
HETATM    6  C   LIG     1      -2.972   1.694  -2.012  1.00  0.00     0.004 C 
HETATM    7  C   LIG     1      -3.800  -0.119  -0.509  1.00  0.00    -0.042 C 
HETATM    8  C   LIG     1      -3.410  -1.539  -0.893  1.00  0.00     0.022 C 
HETATM    9  C   LIG     1      -2.134  -2.019  -0.149  1.00  0.00     0.005 C 
HETATM   10  C   LIG     1      -1.317  -0.840   0.430  1.00  0.00     0.008 C 
HETATM   11  C   LIG     1       0.086  -1.180   1.012  1.00  0.00     0.004 C 
HETATM   12  C   LIG     1       0.354  -2.584   1.546  1.00  0.00     0.003 C 
HETATM   13  C   LIG     1       1.886  -2.685   1.633  1.00  0.00     0.038 C 
HETATM   14  C   LIG     1       2.474  -1.370   1.038  1.00  0.00     0.180 C 
HETATM   15  O   LIG     1       2.708  -0.520   2.146  1.00  0.00    -0.218 OA
HETATM   16  C   LIG     1       1.296  -0.827   0.138  1.00  0.00     0.039 C 
HETATM   17  C   LIG     1       1.292  -1.586  -1.229  1.00  0.00     0.003 C 
HETATM   18  C   LIG     1       1.273   0.714  -0.108  1.00  0.00     0.067 C 
HETATM   19  C   LIG     1      -0.101   1.250  -0.479  1.00  0.00     0.151 C 
HETATM   20  C   LIG     1      -1.319   0.335  -0.601  1.00  0.00     0.061 C 
HETATM   21  O   LIG     1      -0.186   2.430  -0.784  1.00  0.00    -0.296 OA
HETATM   22  C   LIG     1      -5.015   0.119   0.012  1.00  0.00     0.029 C 
ENDROOT
BRANCH  14  23
HETATM   23  C   LIG     1       3.791  -1.643   0.280  1.00  0.00     0.208 C 
HETATM   24  O   LIG     1       3.917  -2.671  -0.370  1.00  0.00    -0.291 OA
BRANCH  23  25
HETATM   25  C   LIG     1       4.942  -0.672   0.282  1.00  0.00     0.218 C 
BRANCH  25  26
HETATM   26  O   LIG     1       4.534   0.547  -0.327  1.00  0.00    -0.294 OA
BRANCH  26  27
HETATM   27  C   LIG     1       5.374   1.657  -0.438  1.00  0.00     0.273 C 
HETATM   28  C   LIG     1       4.850   2.911  -1.049  1.00  0.00     0.106 C 
HETATM   29  O   LIG     1       6.551   1.624   0.016  1.00  0.00    -0.264 OA
ENDBRANCH  26  27
ENDBRANCH  25  26
ENDBRANCH  23  25
ENDBRANCH  14  23
TORSDOF 4
