REMARK  2 active torsions:
REMARK  status: ('A' for Active; 'I' for Inactive)
REMARK    1  A    between atoms: C_22  and  C_24 
REMARK    2  A    between atoms: C_24  and  C_25 
ROOT
HETATM    1  O   LIG     1      -6.032  -0.832  -2.357  1.00  0.00    -0.287 OA
HETATM    2  C   LIG     1      -5.038  -0.749  -1.589  1.00  0.00     0.195 C 
HETATM    3  C   LIG     1      -4.224  -1.931  -1.304  1.00  0.00     0.038 C 
HETATM    4  C   LIG     1      -3.229  -1.869  -0.414  1.00  0.00    -0.017 C 
HETATM    5  C   LIG     1      -3.002  -0.648   0.476  1.00  0.00     0.064 C 
HETATM    6  C   LIG     1      -3.730  -0.950   1.806  1.00  0.00     0.011 C 
HETATM    7  C   LIG     1      -3.649   0.623  -0.131  1.00  0.00    -0.035 C 
HETATM    8  C   LIG     1      -3.011   1.971   0.155  1.00  0.00     0.023 C 
HETATM    9  C   LIG     1      -1.526   2.001  -0.299  1.00  0.00     0.007 C 
HETATM   10  C   LIG     1      -0.930   0.577  -0.419  1.00  0.00     0.034 C 
HETATM   11  C   LIG     1      -1.461  -0.346   0.731  1.00  0.00     0.168 C 
HETATM   12  F   LIG     1      -1.406   0.354   1.926  1.00  0.00    -0.237 F 
HETATM   13  C   LIG     1      -0.508  -1.567   0.934  1.00  0.00     0.182 C 
HETATM   14  O   LIG     1      -0.404  -2.327  -0.245  1.00  0.00    -0.221 OA
HETATM   15  C   LIG     1       0.924  -1.101   1.370  1.00  0.00     0.038 C 
HETATM   16  C   LIG     1       1.451   0.202   0.642  1.00  0.00     0.035 C 
HETATM   17  C   LIG     1       1.392   1.404   1.647  1.00  0.00     0.003 C 
HETATM   18  C   LIG     1       0.608   0.472  -0.616  1.00  0.00     0.005 C 
HETATM   19  C   LIG     1       1.356   1.533  -1.400  1.00  0.00     0.003 C 
HETATM   20  C   LIG     1       2.841   1.140  -1.210  1.00  0.00     0.035 C 
HETATM   21  C   LIG     1       3.729   2.394  -1.113  1.00  0.00     0.003 C 
HETATM   22  C   LIG     1       2.911   0.149   0.028  1.00  0.00     0.180 C 
HETATM   23  O   LIG     1       3.849   0.585   0.992  1.00  0.00    -0.218 OA
HETATM   24  C   LIG     1      -4.642   0.546  -1.030  1.00  0.00     0.034 C 
ENDROOT
BRANCH  22  25
HETATM   25  C   LIG     1       3.300  -1.263  -0.458  1.00  0.00     0.211 C 
HETATM   26  O   LIG     1       2.657  -1.801  -1.346  1.00  0.00    -0.291 OA
BRANCH  25  27
HETATM   27  C   LIG     1       4.463  -2.026   0.126  1.00  0.00     0.249 C 
HETATM   28  O   LIG     1       4.299  -2.161   1.510  1.00  0.00    -0.212 OA
ENDBRANCH  25  27
ENDBRANCH  22  25
TORSDOF 2
