REMARK  4 active torsions:
REMARK  status: ('A' for Active; 'I' for Inactive)
REMARK    1  A    between atoms: C_2  and  O_3 
REMARK    2  A    between atoms: O_3  and  C_4 
REMARK    3  A    between atoms: C_4  and  C_5 
REMARK    4  A    between atoms: C_5  and  C_6 
ROOT
HETATM    1  C   LIG     1       2.033   0.117   0.802  1.00  0.00     0.180 C 
HETATM    2  O   LIG     1       2.063   1.245   1.648  1.00  0.00    -0.218 OA
HETATM    3  C   LIG     1       1.347  -1.020   1.563  1.00  0.00     0.038 C 
HETATM    4  C   LIG     1       0.698  -1.900   0.510  1.00  0.00     0.003 C 
HETATM    5  C   LIG     1       0.309  -0.981  -0.665  1.00  0.00     0.003 C 
HETATM    6  C   LIG     1      -1.238  -0.810  -0.751  1.00  0.00     0.003 C 
HETATM    7  C   LIG     1      -1.719  -0.313  -2.147  1.00  0.00     0.004 C 
HETATM    8  C   LIG     1      -2.966   0.586  -2.094  1.00  0.00     0.022 C 
HETATM    9  C   LIG     1      -3.903   0.114  -1.014  1.00  0.00    -0.042 C 
HETATM   10  C   LIG     1      -5.129  -0.330  -1.338  1.00  0.00     0.029 C 
HETATM   11  C   LIG     1      -5.975  -1.037  -0.363  1.00  0.00     0.172 C 
HETATM   12  C   LIG     1      -5.446  -1.440   0.984  1.00  0.00     0.070 C 
HETATM   13  C   LIG     1      -3.919  -1.269   1.081  1.00  0.00     0.012 C 
HETATM   14  C   LIG     1      -3.390   0.049   0.424  1.00  0.00     0.018 C 
HETATM   15  C   LIG     1      -3.966   1.253   1.221  1.00  0.00     0.004 C 
HETATM   16  C   LIG     1      -1.798   0.029   0.437  1.00  0.00     0.034 C 
HETATM   17  C   LIG     1      -1.084   1.419   0.553  1.00  0.00     0.152 C 
HETATM   18  O   LIG     1      -0.750   1.663   1.897  1.00  0.00    -0.224 OA
HETATM   19  C   LIG     1       0.165   1.587  -0.343  1.00  0.00     0.036 C 
HETATM   20  C   LIG     1       1.121   0.349  -0.480  1.00  0.00     0.035 C 
HETATM   21  C   LIG     1       1.987   0.618  -1.746  1.00  0.00     0.003 C 
HETATM   22  O   LIG     1      -7.164  -1.319  -0.668  1.00  0.00    -0.291 OA
ENDROOT
BRANCH   1  23
HETATM   23  C   LIG     1       3.474  -0.336   0.486  1.00  0.00     0.208 C 
HETATM   24  O   LIG     1       3.662  -1.408  -0.074  1.00  0.00    -0.291 OA
BRANCH  23  25
HETATM   25  C   LIG     1       4.670   0.498   0.872  1.00  0.00     0.218 C 
BRANCH  25  26
HETATM   26  O   LIG     1       5.881  -0.181   0.549  1.00  0.00    -0.294 OA
BRANCH  26  27
HETATM   27  C   LIG     1       7.142   0.368   0.797  1.00  0.00     0.273 C 
HETATM   28  C   LIG     1       8.367  -0.400   0.431  1.00  0.00     0.106 C 
HETATM   29  O   LIG     1       7.257   1.506   1.328  1.00  0.00    -0.264 OA
ENDBRANCH  26  27
ENDBRANCH  25  26
ENDBRANCH  23  25
ENDBRANCH   1  23
TORSDOF 4
