REMARK  2 active torsions:
REMARK  status: ('A' for Active; 'I' for Inactive)
REMARK    1  A    between atoms: C_7  and  C_8 
REMARK    2  A    between atoms: C_7  and  C_10 
ROOT
HETATM    1  O   LIG     1       3.709   0.423  -0.924  1.00  0.00    -0.244 OA
HETATM    2  C   LIG     1       2.567   0.460  -0.390  1.00  0.00     0.355 C 
HETATM    3  N   LIG     1       2.019  -0.702   0.252  1.00  0.00    -0.249 N 
HETATM    4  C   LIG     1       2.793  -1.946   0.319  1.00  0.00     0.138 C 
HETATM    5  N   LIG     1       1.825   1.678  -0.398  1.00  0.00    -0.157 NA
HETATM    6  C   LIG     1       0.473   1.708   0.067  1.00  0.00     0.267 C 
HETATM    7  C   LIG     1      -0.311   0.408   0.226  1.00  0.00     0.144 C 
HETATM    8  C   LIG     1       0.662  -0.656   0.737  1.00  0.00     0.248 C 
HETATM    9  O   LIG     1       0.266  -1.539   1.549  1.00  0.00    -0.271 OA
HETATM   10  O   LIG     1      -0.070   2.826   0.268  1.00  0.00    -0.270 OA
ENDROOT
BRANCH   7  11
HETATM   11  C   LIG     1      -1.491   0.588   1.248  1.00  0.00     0.018 C 
HETATM   12  C   LIG     1      -2.703   1.391   0.749  1.00  0.00     0.001 C 
ENDBRANCH   7  11
BRANCH   7  13
HETATM   13  C   LIG     1      -0.809  -0.019  -1.187  1.00  0.00     0.018 C 
HETATM   14  C   LIG     1      -1.546  -1.363  -1.224  1.00  0.00     0.001 C 
ENDBRANCH   7  13
TORSDOF 2
