REMARK  2 active torsions:
REMARK  status: ('A' for Active; 'I' for Inactive)
REMARK    1  A    between atoms: C_20  and  C_22 
REMARK    2  A    between atoms: C_22  and  C_23 
ROOT
HETATM    1  O   LIG     1      -5.592   2.203   1.426  1.00  0.00    -0.291 OA
HETATM    2  C   LIG     1      -4.554   1.814   0.828  1.00  0.00     0.172 C 
HETATM    3  C   LIG     1      -3.678   2.819   0.142  1.00  0.00     0.070 C 
HETATM    4  C   LIG     1      -2.276   2.253  -0.130  1.00  0.00     0.012 C 
HETATM    5  C   LIG     1      -2.308   0.828  -0.758  1.00  0.00     0.018 C 
HETATM    6  C   LIG     1      -2.929   0.901  -2.175  1.00  0.00     0.004 C 
HETATM    7  C   LIG     1      -3.188  -0.095   0.100  1.00  0.00    -0.042 C 
HETATM    8  C   LIG     1      -2.810  -1.561   0.217  1.00  0.00     0.022 C 
HETATM    9  C   LIG     1      -1.365  -1.746   0.741  1.00  0.00     0.004 C 
HETATM   10  C   LIG     1      -0.480  -0.499   0.497  1.00  0.00     0.003 C 
HETATM   11  C   LIG     1      -0.866   0.190  -0.849  1.00  0.00     0.034 C 
HETATM   12  C   LIG     1       0.285   1.084  -1.401  1.00  0.00     0.152 C 
HETATM   13  O   LIG     1       0.595   2.103  -0.484  1.00  0.00    -0.224 OA
HETATM   14  C   LIG     1       1.568   0.238  -1.697  1.00  0.00     0.036 C 
HETATM   15  C   LIG     1       1.805  -0.966  -0.707  1.00  0.00     0.035 C 
HETATM   16  C   LIG     1       1.321  -2.288  -1.394  1.00  0.00     0.003 C 
HETATM   17  C   LIG     1       1.056  -0.713   0.612  1.00  0.00     0.003 C 
HETATM   18  C   LIG     1       1.621  -1.707   1.623  1.00  0.00     0.003 C 
HETATM   19  C   LIG     1       3.079  -1.941   1.175  1.00  0.00     0.038 C 
HETATM   20  C   LIG     1       3.279  -1.178  -0.180  1.00  0.00     0.180 C 
HETATM   21  O   LIG     1       4.050  -1.943  -1.092  1.00  0.00    -0.218 OA
HETATM   22  C   LIG     1      -4.237   0.379   0.791  1.00  0.00     0.029 C 
ENDROOT
BRANCH  20  23
HETATM   23  C   LIG     1       4.052   0.138   0.036  1.00  0.00     0.211 C 
HETATM   24  O   LIG     1       4.841   0.496  -0.827  1.00  0.00    -0.291 OA
BRANCH  23  25
HETATM   25  C   LIG     1       3.934   1.022   1.254  1.00  0.00     0.249 C 
HETATM   26  O   LIG     1       3.379   2.252   0.880  1.00  0.00    -0.212 OA
ENDBRANCH  23  25
ENDBRANCH  20  23
TORSDOF 2
