REMARK  2 active torsions:
REMARK  status: ('A' for Active; 'I' for Inactive)
REMARK    1  A    between atoms: C_20  and  C_22 
REMARK    2  A    between atoms: C_22  and  C_23 
ROOT
HETATM    1  O   LIG     1      -6.221  -1.304   0.512  1.00  0.00    -0.287 OA
HETATM    2  C   LIG     1      -5.091  -0.749   0.513  1.00  0.00     0.195 C 
HETATM    3  C   LIG     1      -4.293  -0.702   1.740  1.00  0.00     0.038 C 
HETATM    4  C   LIG     1      -3.132  -0.042   1.767  1.00  0.00    -0.020 C 
HETATM    5  C   LIG     1      -2.663   0.836   0.609  1.00  0.00     0.036 C 
HETATM    6  C   LIG     1      -3.045   2.288   0.968  1.00  0.00     0.009 C 
HETATM    7  C   LIG     1      -3.379   0.478  -0.711  1.00  0.00    -0.038 C 
HETATM    8  C   LIG     1      -2.649   0.747  -2.011  1.00  0.00     0.022 C 
HETATM    9  C   LIG     1      -1.312  -0.034  -2.067  1.00  0.00     0.004 C 
HETATM   10  C   LIG     1      -0.780  -0.404  -0.657  1.00  0.00     0.004 C 
HETATM   11  C   LIG     1      -1.105   0.732   0.364  1.00  0.00     0.038 C 
HETATM   12  C   LIG     1      -0.172   0.675   1.610  1.00  0.00     0.153 C 
HETATM   13  O   LIG     1      -0.305  -0.562   2.264  1.00  0.00    -0.223 OA
HETATM   14  C   LIG     1       1.322   0.889   1.202  1.00  0.00     0.036 C 
HETATM   15  C   LIG     1       1.714   0.267  -0.194  1.00  0.00     0.035 C 
HETATM   16  C   LIG     1       1.761   1.411  -1.264  1.00  0.00     0.003 C 
HETATM   17  C   LIG     1       0.711  -0.836  -0.580  1.00  0.00     0.003 C 
HETATM   18  C   LIG     1       1.349  -1.600  -1.733  1.00  0.00     0.003 C 
HETATM   19  C   LIG     1       2.864  -1.488  -1.477  1.00  0.00     0.038 C 
HETATM   20  C   LIG     1       3.071  -0.526  -0.262  1.00  0.00     0.180 C 
HETATM   21  O   LIG     1       4.146   0.350  -0.523  1.00  0.00    -0.218 OA
HETATM   22  C   LIG     1      -4.535  -0.203  -0.727  1.00  0.00     0.034 C 
ENDROOT
BRANCH  20  23
HETATM   23  C   LIG     1       3.369  -1.335   1.013  1.00  0.00     0.211 C 
HETATM   24  O   LIG     1       2.797  -2.396   1.217  1.00  0.00    -0.291 OA
BRANCH  23  25
HETATM   25  C   LIG     1       4.359  -0.858   2.048  1.00  0.00     0.249 C 
HETATM   26  O   LIG     1       5.477  -1.701   2.069  1.00  0.00    -0.212 OA
ENDBRANCH  23  25
ENDBRANCH  20  23
TORSDOF 2
