REMARK  5 active torsions:
REMARK  status: ('A' for Active; 'I' for Inactive)
REMARK    1  A    between atoms: C_7  and  C_8 
REMARK    2  A    between atoms: C_8  and  O_9 
REMARK    3  A    between atoms: C_12  and  O_13 
REMARK    4  A    between atoms: O_13  and  C_14 
REMARK    5  A    between atoms: C_14  and  C_15 
ROOT
HETATM    1  C   LIG     1      -3.986  -2.512   1.129  1.00  0.00     0.285 C 
HETATM    2  N   LIG     1      -2.652  -1.928   0.895  1.00  0.00     0.136 N 
HETATM    3  C   LIG     1      -2.130  -1.216   2.071  1.00  0.00     0.222 C 
HETATM    4  C   LIG     1      -2.814   0.161   2.075  1.00  0.00     0.035 C 
HETATM    5  C   LIG     1      -3.205   0.385   0.624  1.00  0.00     0.036 C 
HETATM    6  C   LIG     1      -2.662  -0.858  -0.111  1.00  0.00     0.231 C 
HETATM    7  C   LIG     1      -1.185  -0.706  -0.624  1.00  0.00     0.145 C 
HETATM    8  C   LIG     1      -0.137  -1.237   0.420  1.00  0.00     0.138 C 
HETATM    9  C   LIG     1      -0.591  -1.062   1.894  1.00  0.00     0.064 C 
ENDROOT
BRANCH   8  10
HETATM   10  O   LIG     1       1.151  -0.641   0.245  1.00  0.00    -0.300 OA
BRANCH  10  11
HETATM   11  C   LIG     1       1.965  -0.863  -0.873  1.00  0.00     0.296 C 
HETATM   12  O   LIG     1       1.662  -1.758  -1.709  1.00  0.00    -0.259 OA
BRANCH  11  13
HETATM   13  C   LIG     1       3.174  -0.036  -1.073  1.00  0.00     0.063 A 
HETATM   14  C   LIG     1       3.460   1.025  -0.195  1.00  0.00     0.005 A 
HETATM   15  C   LIG     1       4.595   1.817  -0.389  1.00  0.00     0.000 A 
HETATM   16  C   LIG     1       5.455   1.560  -1.459  1.00  0.00     0.000 A 
HETATM   17  C   LIG     1       5.181   0.510  -2.338  1.00  0.00     0.000 A 
HETATM   18  C   LIG     1       4.046  -0.285  -2.150  1.00  0.00     0.005 A 
ENDBRANCH  11  13
ENDBRANCH  10  11
ENDBRANCH   8  10
BRANCH   7  19
HETATM   19  C   LIG     1      -0.854   0.675  -1.138  1.00  0.00     0.276 C 
HETATM   20  O   LIG     1      -0.982   0.931  -2.367  1.00  0.00    -0.264 OA
BRANCH  19  21
HETATM   21  O   LIG     1      -0.384   1.655  -0.256  1.00  0.00    -0.299 OA
HETATM   22  C   LIG     1       0.019   2.947  -0.689  1.00  0.00     0.184 C 
ENDBRANCH  19  21
ENDBRANCH   7  19
TORSDOF 5
