REMARK  0 active torsions:
REMARK  status: ('A' for Active; 'I' for Inactive)
ROOT
HETATM    1  C   LIG     1       0.365  -0.211  -0.038  1.00  0.00     0.000 A 
HETATM    2  C   LIG     1       1.731   0.139   0.094  1.00  0.00     0.000 A 
HETATM    3  C   LIG     1       2.093   1.461   0.427  1.00  0.00     0.000 A 
HETATM    4  C   LIG     1       3.448   1.802   0.557  1.00  0.00     0.000 A 
HETATM    5  C   LIG     1       4.438   0.837   0.358  1.00  0.00     0.000 A 
HETATM    6  C   LIG     1       4.089  -0.474   0.028  1.00  0.00     0.000 A 
HETATM    7  C   LIG     1       2.739  -0.833  -0.106  1.00  0.00     0.000 A 
HETATM    8  C   LIG     1       2.381  -2.146  -0.437  1.00  0.00     0.000 A 
HETATM    9  C   LIG     1       1.037  -2.496  -0.569  1.00  0.00     0.000 A 
HETATM   10  C   LIG     1       0.027  -1.542  -0.373  1.00  0.00     0.000 A 
HETATM   11  C   LIG     1      -1.313  -1.906  -0.508  1.00  0.00     0.000 A 
HETATM   12  C   LIG     1      -2.332  -0.968  -0.316  1.00  0.00     0.000 A 
HETATM   13  C   LIG     1      -2.021   0.380   0.021  1.00  0.00     0.000 A 
HETATM   14  C   LIG     1      -3.099   1.282   0.203  1.00  0.00     0.000 A 
HETATM   15  C   LIG     1      -4.422   0.860   0.054  1.00  0.00     0.000 A 
HETATM   16  C   LIG     1      -4.707  -0.462  -0.276  1.00  0.00     0.000 A 
HETATM   17  C   LIG     1      -3.670  -1.372  -0.461  1.00  0.00     0.000 A 
HETATM   18  C   LIG     1      -0.651   0.764   0.162  1.00  0.00     0.000 A 
HETATM   19  C   LIG     1      -0.252   2.081   0.496  1.00  0.00     0.000 A 
HETATM   20  C   LIG     1       1.096   2.419   0.625  1.00  0.00     0.000 A 
ENDROOT
TORSDOF 0
