REMARK  5 active torsions:
REMARK  status: ('A' for Active; 'I' for Inactive)
REMARK    1  A    between atoms: C_3  and  C_4 
REMARK    2  A    between atoms: C_4  and  C_5 
REMARK    3  A    between atoms: C_5  and  C_6 
REMARK    4  A    between atoms: N_8  and  C_9 
REMARK    5  A    between atoms: N_15  and  C_16 
ROOT
HETATM    1  O   LIG     1       0.611  -2.355  -1.388  1.00  0.00    -0.270 OA
HETATM    2  C   LIG     1       0.556  -1.187  -0.917  1.00  0.00     0.264 A 
HETATM    3  C   LIG     1       1.759  -0.345  -0.610  1.00  0.00     0.162 A 
HETATM    4  N   LIG     1      -0.666  -0.525  -0.594  1.00  0.00    -0.211 N 
HETATM    5  N   LIG     1      -0.351   0.735  -0.069  1.00  0.00    -0.211 N 
HETATM    6  C   LIG     1       1.067   0.884  -0.092  1.00  0.00     0.264 A 
HETATM    7  O   LIG     1       1.656   1.954   0.219  1.00  0.00    -0.270 OA
ENDROOT
BRANCH   4   8
HETATM    8  C   LIG     1      -1.942  -1.175  -0.464  1.00  0.00     0.084 A 
HETATM    9  C   LIG     1      -2.432  -1.983  -1.503  1.00  0.00     0.019 A 
HETATM   10  C   LIG     1      -3.677  -2.608  -1.382  1.00  0.00     0.002 A 
HETATM   11  C   LIG     1      -4.439  -2.434  -0.224  1.00  0.00     0.000 A 
HETATM   12  C   LIG     1      -3.957  -1.635   0.816  1.00  0.00     0.002 A 
HETATM   13  C   LIG     1      -2.713  -1.008   0.699  1.00  0.00     0.019 A 
ENDBRANCH   4   8
BRANCH   5  14
HETATM   14  C   LIG     1      -1.290   1.811   0.106  1.00  0.00     0.084 A 
HETATM   15  C   LIG     1      -1.158   2.693   1.190  1.00  0.00     0.019 A 
HETATM   16  C   LIG     1      -2.074   3.735   1.367  1.00  0.00     0.002 A 
HETATM   17  C   LIG     1      -3.126   3.904   0.463  1.00  0.00     0.000 A 
HETATM   18  C   LIG     1      -3.261   3.033  -0.622  1.00  0.00     0.002 A 
HETATM   19  C   LIG     1      -2.347   1.991  -0.802  1.00  0.00     0.019 A 
ENDBRANCH   5  14
BRANCH   3  20
HETATM   20  C   LIG     1       2.646  -1.008   0.463  1.00  0.00     0.019 C 
BRANCH  20  21
HETATM   21  C   LIG     1       4.009  -0.301   0.635  1.00  0.00     0.001 C 
BRANCH  21  22
HETATM   22  C   LIG     1       5.165  -1.014  -0.086  1.00  0.00     0.000 C 
HETATM   23  C   LIG     1       5.035  -0.972  -1.607  1.00  0.00     0.000 C 
ENDBRANCH  21  22
ENDBRANCH  20  21
ENDBRANCH   3  20
TORSDOF 5
