REMARK  4 active torsions:
REMARK  status: ('A' for Active; 'I' for Inactive)
REMARK    1  A    between atoms: N_2  and  C_4 
REMARK    2  A    between atoms: C_4  and  C_5 
REMARK    3  A    between atoms: C_5  and  C_6 
REMARK    4  A    between atoms: C_6  and  N_7 
ROOT
HETATM    1  N   LIG     1      -0.636  -0.305   0.022  1.00  0.00    -0.328 N 
HETATM    2  C   LIG     1      -1.314   0.465   1.022  1.00  0.00     0.056 A 
HETATM    3  C   LIG     1      -2.640   0.854   0.804  1.00  0.00    -0.006 A 
HETATM    4  C   LIG     1      -3.321   1.595   1.784  1.00  0.00    -0.003 A 
HETATM    5  C   LIG     1      -2.670   1.953   2.970  1.00  0.00    -0.000 A 
HETATM    6  C   LIG     1      -1.349   1.554   3.190  1.00  0.00     0.002 A 
HETATM    7  C   LIG     1      -0.673   0.805   2.222  1.00  0.00     0.017 A 
HETATM    8  C   LIG     1      -3.331   0.390  -0.444  1.00  0.00     0.033 C 
HETATM    9  C   LIG     1      -3.611  -1.114  -0.372  1.00  0.00     0.033 C 
HETATM   10  C   LIG     1      -2.408  -2.053  -0.377  1.00  0.00    -0.006 A 
HETATM   11  C   LIG     1      -1.041  -1.665  -0.223  1.00  0.00     0.056 A 
HETATM   12  C   LIG     1      -0.038  -2.649  -0.279  1.00  0.00     0.017 A 
HETATM   13  C   LIG     1      -0.359  -3.991  -0.469  1.00  0.00     0.002 A 
HETATM   14  C   LIG     1      -1.689  -4.376  -0.600  1.00  0.00    -0.000 A 
HETATM   15  C   LIG     1      -2.702  -3.419  -0.549  1.00  0.00    -0.003 A 
ENDROOT
BRANCH   1  16
HETATM   16  C   LIG     1       0.286   0.363  -0.910  1.00  0.00     0.108 C 
BRANCH  16  17
HETATM   17  C   LIG     1       1.593   0.763  -0.217  1.00  0.00     0.060 C 
BRANCH  17  18
HETATM   18  C   LIG     1       2.622   1.281  -1.228  1.00  0.00     0.252 C 
BRANCH  18  19
HETATM   19  N   LIG     1       3.861   1.684  -0.527  1.00  0.00     0.141 N 
HETATM   20  C   LIG     1       4.506   2.813  -1.218  1.00  0.00     0.285 C 
HETATM   21  C   LIG     1       4.805   0.555  -0.436  1.00  0.00     0.285 C 
ENDBRANCH  18  19
ENDBRANCH  17  18
ENDBRANCH  16  17
ENDBRANCH   1  16
TORSDOF 4
