REMARK  3 active torsions:
REMARK  status: ('A' for Active; 'I' for Inactive)
REMARK    1  A    between atoms: N_2  and  C_3 
REMARK    2  A    between atoms: C_3  and  C_4 
REMARK    3  A    between atoms: C_4  and  C_5 
ROOT
HETATM    1  C   LIG     1       0.678   0.798   0.122  1.00  0.00    -0.024 C 
HETATM    2  C   LIG     1      -0.596   0.630  -0.285  1.00  0.00    -0.005 C 
HETATM    3  C   LIG     1      -1.604   1.619   0.122  1.00  0.00    -0.004 A 
HETATM    4  C   LIG     1      -1.601   2.911  -0.423  1.00  0.00    -0.000 A 
HETATM    5  C   LIG     1      -2.583   3.831  -0.044  1.00  0.00    -0.000 A 
HETATM    6  C   LIG     1      -3.567   3.465   0.877  1.00  0.00    -0.000 A 
HETATM    7  C   LIG     1      -3.567   2.181   1.431  1.00  0.00    -0.004 A 
HETATM    8  C   LIG     1      -2.577   1.255   1.063  1.00  0.00    -0.022 A 
HETATM    9  C   LIG     1      -2.540  -0.122   1.668  1.00  0.00     0.031 C 
HETATM   10  C   LIG     1      -2.988  -1.186   0.662  1.00  0.00     0.031 C 
HETATM   11  C   LIG     1      -2.151  -1.387  -0.599  1.00  0.00    -0.022 A 
HETATM   12  C   LIG     1      -1.058  -0.570  -1.029  1.00  0.00    -0.004 A 
HETATM   13  C   LIG     1      -0.448  -0.845  -2.269  1.00  0.00    -0.000 A 
HETATM   14  C   LIG     1      -0.848  -1.932  -3.043  1.00  0.00    -0.000 A 
HETATM   15  C   LIG     1      -1.885  -2.750  -2.609  1.00  0.00    -0.000 A 
HETATM   16  C   LIG     1      -2.536  -2.474  -1.408  1.00  0.00    -0.004 A 
ENDROOT
BRANCH   1  17
HETATM   17  C   LIG     1       1.759  -0.237  -0.060  1.00  0.00     0.061 C 
BRANCH  17  18
HETATM   18  C   LIG     1       3.002   0.105   0.773  1.00  0.00     0.255 C 
BRANCH  18  19
HETATM   19  N   LIG     1       4.001  -0.984   0.692  1.00  0.00     0.142 N 
HETATM   20  C   LIG     1       4.824  -0.860  -0.524  1.00  0.00     0.285 C 
HETATM   21  C   LIG     1       4.875  -0.961   1.876  1.00  0.00     0.285 C 
ENDBRANCH  18  19
ENDBRANCH  17  18
ENDBRANCH   1  17
TORSDOF 3
