REMARK  4 active torsions:
REMARK  status: ('A' for Active; 'I' for Inactive)
REMARK    1  A    between atoms: N_2  and  C_3 
REMARK    2  A    between atoms: C_3  and  C_4 
REMARK    3  A    between atoms: C_4  and  C_5 
REMARK    4  A    between atoms: C_5  and  N_6 
ROOT
HETATM    1  N   LIG     1      -0.165  -0.826  -0.156  1.00  0.00    -0.328 N 
HETATM    2  C   LIG     1      -1.421  -1.480   0.131  1.00  0.00     0.056 A 
HETATM    3  C   LIG     1      -2.638  -0.760   0.354  1.00  0.00    -0.006 A 
HETATM    4  C   LIG     1      -3.812  -1.489   0.631  1.00  0.00    -0.003 A 
HETATM    5  C   LIG     1      -3.804  -2.881   0.683  1.00  0.00    -0.000 A 
HETATM    6  C   LIG     1      -2.628  -3.580   0.440  1.00  0.00     0.002 A 
HETATM    7  C   LIG     1      -1.452  -2.889   0.158  1.00  0.00     0.017 A 
HETATM    8  C   LIG     1      -2.821   0.748   0.246  1.00  0.00     0.033 C 
HETATM    9  C   LIG     1      -1.562   1.615   0.222  1.00  0.00     0.033 C 
HETATM   10  C   LIG     1      -0.780   1.376  -1.035  1.00  0.00    -0.006 A 
HETATM   11  C   LIG     1      -0.114   0.155  -1.202  1.00  0.00     0.056 A 
HETATM   12  C   LIG     1       0.632  -0.080  -2.367  1.00  0.00     0.017 A 
HETATM   13  C   LIG     1       0.711   0.900  -3.360  1.00  0.00     0.002 A 
HETATM   14  C   LIG     1       0.050   2.119  -3.193  1.00  0.00    -0.000 A 
HETATM   15  C   LIG     1      -0.694   2.360  -2.034  1.00  0.00    -0.003 A 
ENDROOT
BRANCH   1  16
HETATM   16  C   LIG     1       1.087  -1.281   0.482  1.00  0.00     0.108 C 
BRANCH  16  17
HETATM   17  C   LIG     1       1.711  -0.203   1.386  1.00  0.00     0.063 C 
BRANCH  17  18
HETATM   18  C   LIG     1       2.518   0.854   0.606  1.00  0.00     0.292 C 
BRANCH  18  19
HETATM   19  N   LIG     1       3.247   1.769   1.501  1.00  0.00     0.341 N 
HETATM   20  C   LIG     1       4.537   1.215   1.921  1.00  0.00     0.328 C 
ENDBRANCH  18  19
ENDBRANCH  17  18
ENDBRANCH  16  17
ENDBRANCH   1  16
TORSDOF 4
