REMARK  4 active torsions:
REMARK  status: ('A' for Active; 'I' for Inactive)
REMARK    1  A    between atoms: N_2  and  C_4 
REMARK    2  A    between atoms: C_4  and  C_5 
REMARK    3  A    between atoms: C_5  and  C_6 
REMARK    4  A    between atoms: C_6  and  N_7 
ROOT
HETATM    1  N   LIG     1      -0.787   0.111   0.329  1.00  0.00    -0.327 N 
HETATM    2  C   LIG     1      -1.770  -0.945   0.256  1.00  0.00     0.067 A 
HETATM    3  C   LIG     1      -1.728  -2.043   1.133  1.00  0.00     0.029 A 
HETATM    4  C   LIG     1      -2.774  -2.973   1.148  1.00  0.00     0.059 A 
HETATM    5 CL   LIG     1      -2.719  -4.336   2.250  1.00  0.00    -0.082 Cl
HETATM    6  C   LIG     1      -3.874  -2.805   0.300  1.00  0.00     0.012 A 
HETATM    7  C   LIG     1      -3.922  -1.720  -0.578  1.00  0.00     0.009 A 
HETATM    8  C   LIG     1      -2.868  -0.802  -0.614  1.00  0.00     0.045 A 
HETATM    9  S   LIG     1      -2.857   0.513  -1.836  1.00  0.00    -0.084 SA
HETATM   10  C   LIG     1      -2.329   1.757  -0.654  1.00  0.00     0.045 A 
HETATM   11  C   LIG     1      -1.264   1.470   0.221  1.00  0.00     0.066 A 
HETATM   12  C   LIG     1      -0.806   2.471   1.095  1.00  0.00     0.018 A 
HETATM   13  C   LIG     1      -1.398   3.738   1.086  1.00  0.00     0.002 A 
HETATM   14  C   LIG     1      -2.464   4.009   0.224  1.00  0.00     0.001 A 
HETATM   15  C   LIG     1      -2.934   3.018  -0.642  1.00  0.00     0.008 A 
ENDROOT
BRANCH   1  16
HETATM   16  C   LIG     1       0.644  -0.179   0.514  1.00  0.00     0.108 C 
BRANCH  16  17
HETATM   17  C   LIG     1       1.170  -1.058  -0.630  1.00  0.00     0.060 C 
BRANCH  17  18
HETATM   18  C   LIG     1       2.666  -1.371  -0.477  1.00  0.00     0.252 C 
BRANCH  18  19
HETATM   19  N   LIG     1       3.483  -0.137  -0.477  1.00  0.00     0.141 N 
HETATM   20  C   LIG     1       3.746   0.328  -1.850  1.00  0.00     0.285 C 
HETATM   21  C   LIG     1       4.762  -0.374   0.212  1.00  0.00     0.285 C 
ENDBRANCH  18  19
ENDBRANCH  17  18
ENDBRANCH  16  17
ENDBRANCH   1  16
TORSDOF 4
