REMARK  0 active torsions:
REMARK  status: ('A' for Active; 'I' for Inactive)
ROOT
HETATM    1  O   LIG     1       1.584   2.193   0.010  1.00  0.00    -0.276 OA
HETATM    2  C   LIG     1       0.846   1.171   0.006  1.00  0.00     0.310 A 
HETATM    3  C   LIG     1       1.432  -0.175  -0.028  1.00  0.00     0.327 A 
HETATM    4  N   LIG     1       0.577  -1.323  -0.033  1.00  0.00    -0.149 NA
HETATM    5  O   LIG     1       2.683  -0.323  -0.052  1.00  0.00    -0.261 OA
HETATM    6  C   LIG     1      -0.617   1.304   0.033  1.00  0.00     0.327 A 
HETATM    7  N   LIG     1      -1.438   0.131   0.027  1.00  0.00    -0.149 NA
HETATM    8  C   LIG     1      -0.848  -1.175  -0.006  1.00  0.00     0.374 A 
HETATM    9  O   LIG     1      -1.585  -2.196  -0.010  1.00  0.00    -0.242 OA
HETATM   10  O   LIG     1      -1.151   2.445   0.062  1.00  0.00    -0.261 OA
ENDROOT
TORSDOF 0
