REMARK  5 active torsions:
REMARK  status: ('A' for Active; 'I' for Inactive)
REMARK    1  A    between atoms: C_2  and  C_3 
REMARK    2  A    between atoms: C_2  and  C_5 
REMARK    3  A    between atoms: C_5  and  C_7 
REMARK    4  A    between atoms: C_7  and  C_9 
REMARK    5  A    between atoms: C_9  and  C_11 
ROOT
HETATM    1  C   LIG     1       0.479  -0.023  -0.224  1.00  0.00     0.218 C 
HETATM    2  O   LIG     1       0.504   0.045  -1.630  1.00  0.00    -0.218 OA
ENDROOT
BRANCH   1   3
HETATM    3  C   LIG     1       1.814  -0.622   0.291  1.00  0.00     0.218 C 
HETATM    4  O   LIG     1       2.054  -1.865  -0.321  1.00  0.00    -0.218 OA
BRANCH   3   5
HETATM    5  C   LIG     1       3.004   0.302  -0.000  1.00  0.00     0.218 C 
HETATM    6  O   LIG     1       2.849   1.520   0.674  1.00  0.00    -0.218 OA
ENDBRANCH   3   5
ENDBRANCH   1   3
BRANCH   1   7
HETATM    7  C   LIG     1      -0.737  -0.867   0.231  1.00  0.00     0.218 C 
HETATM    8  O   LIG     1      -0.794  -0.879   1.636  1.00  0.00    -0.218 OA
BRANCH   7   9
HETATM    9  C   LIG     1      -2.088  -0.364  -0.355  1.00  0.00     0.218 C 
HETATM   10  O   LIG     1      -3.105  -1.292  -0.068  1.00  0.00    -0.218 OA
BRANCH   9  11
HETATM   11  C   LIG     1      -2.501   1.043   0.127  1.00  0.00     0.218 C 
HETATM   12  O   LIG     1      -1.779   2.027  -0.561  1.00  0.00    -0.218 OA
ENDBRANCH   9  11
ENDBRANCH   7   9
ENDBRANCH   1   7
TORSDOF 5
