REMARK  1 active torsions:
REMARK  status: ('A' for Active; 'I' for Inactive)
REMARK    1  A    between atoms: C_4  and  C_5 
ROOT
HETATM    1  O   LIG     1      -1.163  -2.789  -0.034  1.00  0.00    -0.187 OA
HETATM    2  C   LIG     1      -0.644  -1.504  -0.246  1.00  0.00     0.303 C 
HETATM    3  O   LIG     1       0.492  -1.319   0.580  1.00  0.00    -0.324 OA
HETATM    4  C   LIG     1       1.196  -0.120   0.268  1.00  0.00     0.184 C 
HETATM    5  C   LIG     1       0.278   1.077  -0.135  1.00  0.00     0.215 C 
HETATM    6  O   LIG     1       0.141   1.159  -1.534  1.00  0.00    -0.218 OA
HETATM    7  C   LIG     1      -1.102   0.888   0.520  1.00  0.00     0.220 C 
HETATM    8  O   LIG     1      -1.955   1.960   0.205  1.00  0.00    -0.218 OA
HETATM    9  C   LIG     1      -1.734  -0.460   0.087  1.00  0.00     0.244 C 
HETATM   10  O   LIG     1      -2.554  -0.289  -1.043  1.00  0.00    -0.215 OA
ENDROOT
BRANCH   4  11
HETATM   11  C   LIG     1       2.321  -0.407  -0.744  1.00  0.00     0.214 C 
HETATM   12  O   LIG     1       3.102   0.738  -0.960  1.00  0.00    -0.218 OA
ENDBRANCH   4  11
TORSDOF 1
