REMARK  3 active torsions:
REMARK  status: ('A' for Active; 'I' for Inactive)
REMARK    1  A    between atoms: C_2  and  C_4 
REMARK    2  A    between atoms: C_4  and  C_5 
REMARK    3  A    between atoms: C_5  and  C_6 
ROOT
HETATM    1  C   LIG     1      -0.597   0.295  -0.131  1.00  0.00    -0.022 A 
HETATM    2  C   LIG     1      -1.222   0.600  -1.352  1.00  0.00    -0.004 A 
HETATM    3  C   LIG     1      -2.538   0.191  -1.592  1.00  0.00    -0.000 A 
HETATM    4  C   LIG     1      -3.239  -0.522  -0.616  1.00  0.00    -0.000 A 
HETATM    5  C   LIG     1      -2.627  -0.825   0.603  1.00  0.00    -0.000 A 
HETATM    6  C   LIG     1      -1.312  -0.417   0.848  1.00  0.00    -0.004 A 
ENDROOT
BRANCH   1   7
HETATM    7  C   LIG     1       0.819   0.738   0.136  1.00  0.00     0.038 C 
BRANCH   7   8
HETATM    8  C   LIG     1       1.775  -0.459   0.151  1.00  0.00     0.102 C 
BRANCH   8   9
HETATM    9  C   LIG     1       3.180  -0.003   0.387  1.00  0.00     0.185 C 
HETATM   10  O   LIG     1       3.623   0.096   1.562  1.00  0.00    -0.647 OA
HETATM   11  O   LIG     1       3.982   0.354  -0.692  1.00  0.00    -0.647 OA
ENDBRANCH   8   9
ENDBRANCH   7   8
ENDBRANCH   1   7
TORSDOF 3
