REMARK  6 active torsions:
REMARK  status: ('A' for Active; 'I' for Inactive)
REMARK    1  A    between atoms: C_2  and  C_3 
REMARK    2  A    between atoms: C_3  and  C_4 
REMARK    3  A    between atoms: C_4  and  C_5 
REMARK    4  A    between atoms: C_5  and  C_6 
REMARK    5  A    between atoms: C_6  and  C_7 
REMARK    6  A    between atoms: C_7  and  C_8 
ROOT
HETATM    1  C   LIG     1       0.285  -1.714  -0.805  1.00  0.00     0.151 C 
HETATM    2  O   LIG     1       0.428  -2.696  -0.091  1.00  0.00    -0.296 OA
ENDROOT
BRANCH   1   3
HETATM    3  C   LIG     1       1.465  -1.179  -1.576  1.00  0.00     0.065 C 
BRANCH   3   4
HETATM    4  C   LIG     1       1.889   0.215  -1.093  1.00  0.00     0.008 C 
BRANCH   4   5
HETATM    5  C   LIG     1       2.470   0.182   0.328  1.00  0.00     0.000 C 
HETATM    6  C   LIG     1       2.891   1.577   0.782  1.00  0.00     0.000 C 
ENDBRANCH   4   5
ENDBRANCH   3   4
ENDBRANCH   1   3
BRANCH   1   7
HETATM    7  C   LIG     1      -1.076  -1.081  -0.929  1.00  0.00     0.065 C 
BRANCH   7   8
HETATM    8  C   LIG     1      -1.502  -0.435   0.394  1.00  0.00     0.008 C 
BRANCH   8   9
HETATM    9  C   LIG     1      -2.885   0.214   0.269  1.00  0.00     0.000 C 
HETATM   10  C   LIG     1      -3.310   0.862   1.583  1.00  0.00     0.000 C 
ENDBRANCH   8   9
ENDBRANCH   7   8
ENDBRANCH   1   7
TORSDOF 6
