REMARK  0 active torsions:
REMARK  status: ('A' for Active; 'I' for Inactive)
ROOT
HETATM    1  C   LIG     1       0.382   2.164   0.403  1.00  0.00     0.000 C 
HETATM    2  C   LIG     1       0.637   0.639   0.189  1.00  0.00     0.002 C 
HETATM    3  C   LIG     1       1.968   0.324   0.940  1.00  0.00     0.000 C 
HETATM    4  C   LIG     1       0.643   0.215  -1.291  1.00  0.00     0.003 C 
HETATM    5  C   LIG     1      -0.809   0.503  -1.750  1.00  0.00     0.000 C 
HETATM    6  C   LIG     1      -1.640   0.180  -0.491  1.00  0.00     0.002 C 
HETATM    7  C   LIG     1      -0.556  -0.292   0.516  1.00  0.00     0.028 C 
HETATM    8  C   LIG     1      -1.034  -0.277   1.974  1.00  0.00     0.003 C 
HETATM    9  C   LIG     1      -0.043  -1.687   0.043  1.00  0.00     0.152 C 
HETATM   10  O   LIG     1      -1.084  -2.614  -0.177  1.00  0.00    -0.224 OA
HETATM   11  C   LIG     1       0.777  -1.328  -1.227  1.00  0.00     0.033 C 
ENDROOT
TORSDOF 0
