REMARK  1 active torsions:
REMARK  status: ('A' for Active; 'I' for Inactive)
REMARK    1  A    between atoms: C_2  and  C_3 
ROOT
HETATM    1  C   LIG     1      -0.459  -0.075  -0.399  1.00  0.00     0.081 C 
HETATM    2  C   LIG     1      -0.493   1.462  -0.315  1.00  0.00     0.018 C 
HETATM    3 CL   LIG     1      -0.178  -0.536  -2.110  1.00  0.00    -0.115 Cl
HETATM    4  C   LIG     1      -1.838  -0.637  -0.006  1.00  0.00     0.018 C 
ENDROOT
BRANCH   1   5
HETATM    5  C   LIG     1       0.657  -0.697   0.499  1.00  0.00     0.094 C 
HETATM    6 CL   LIG     1       0.375  -0.394   2.244  1.00  0.00    -0.114 Cl
HETATM    7  C   LIG     1       2.074  -0.221   0.150  1.00  0.00     0.019 C 
ENDBRANCH   1   5
TORSDOF 1
