REMARK  6 active torsions:
REMARK  status: ('A' for Active; 'I' for Inactive)
REMARK    1  A    between atoms: C_3  and  C_4 
REMARK    2  A    between atoms: C_4  and  C_5 
REMARK    3  A    between atoms: C_5  and  O_6 
REMARK    4  A    between atoms: O_6  and  C_7 
REMARK    5  A    between atoms: C_7  and  C_8 
REMARK    6  A    between atoms: C_8  and  C_9 
ROOT
HETATM    1  C   LIG     1      -0.285  -1.559  -1.210  1.00  0.00     0.003 C 
HETATM    2  C   LIG     1      -0.502  -0.359  -0.246  1.00  0.00     0.035 C 
HETATM    3  C   LIG     1       0.825   0.467  -0.060  1.00  0.00     0.180 C 
HETATM    4  O   LIG     1       1.450   0.691  -1.306  1.00  0.00    -0.218 OA
HETATM    5  C   LIG     1       0.309   1.827   0.431  1.00  0.00     0.038 C 
HETATM    6  C   LIG     1      -1.050   2.039  -0.238  1.00  0.00     0.003 C 
HETATM    7  C   LIG     1      -1.065  -0.881   1.139  1.00  0.00     0.036 C 
HETATM    8  C   LIG     1      -2.562  -0.619   1.426  1.00  0.00     0.152 C 
HETATM    9  O   LIG     1      -2.718   0.638   2.033  1.00  0.00    -0.224 OA
HETATM   10  C   LIG     1      -1.436   0.701  -0.896  1.00  0.00     0.003 C 
HETATM   11  C   LIG     1      -2.974   0.409  -0.867  1.00  0.00     0.003 C 
HETATM   12  C   LIG     1      -3.513   0.051  -2.283  1.00  0.00     0.004 C 
HETATM   13  C   LIG     1      -4.972  -0.471  -2.283  1.00  0.00     0.022 C 
HETATM   14  C   LIG     1      -3.394  -0.701   0.135  1.00  0.00     0.034 C 
HETATM   15  C   LIG     1      -4.978  -0.807   0.298  1.00  0.00     0.018 C 
HETATM   16  C   LIG     1      -5.560  -0.184   1.623  1.00  0.00     0.012 C 
HETATM   17  C   LIG     1      -5.853   1.308   1.514  1.00  0.00     0.070 C 
HETATM   18  C   LIG     1      -5.367  -2.308   0.327  1.00  0.00     0.004 C 
HETATM   19  C   LIG     1      -5.630  -0.181  -0.955  1.00  0.00    -0.042 C 
HETATM   20  C   LIG     1      -6.522   0.824  -0.891  1.00  0.00     0.029 C 
HETATM   21  C   LIG     1      -6.792   1.513   0.373  1.00  0.00     0.172 C 
HETATM   22  O   LIG     1      -7.774   2.293   0.479  1.00  0.00    -0.291 OA
ENDROOT
BRANCH   3  23
HETATM   23  C   LIG     1       1.857  -0.122   0.913  1.00  0.00     0.208 C 
HETATM   24  O   LIG     1       1.788  -1.293   1.256  1.00  0.00    -0.291 OA
BRANCH  23  25
HETATM   25  C   LIG     1       3.002   0.709   1.432  1.00  0.00     0.218 C 
BRANCH  25  26
HETATM   26  O   LIG     1       4.236   0.004   1.308  1.00  0.00    -0.294 OA
BRANCH  26  27
HETATM   27  C   LIG     1       4.910  -0.165   0.094  1.00  0.00     0.272 C 
HETATM   28  O   LIG     1       4.482   0.376  -0.962  1.00  0.00    -0.264 OA
BRANCH  27  29
HETATM   29  C   LIG     1       6.175  -0.973   0.059  1.00  0.00     0.096 C 
BRANCH  29  30
HETATM   30  C   LIG     1       7.457  -0.141   0.344  1.00  0.00     0.009 C 
HETATM   31  C   LIG     1       7.645   0.957  -0.724  1.00  0.00     0.001 C 
HETATM   32  C   LIG     1       7.389   0.509   1.743  1.00  0.00     0.001 C 
HETATM   33  C   LIG     1       8.674  -1.088   0.299  1.00  0.00     0.001 C 
ENDBRANCH  29  30
ENDBRANCH  27  29
ENDBRANCH  26  27
ENDBRANCH  25  26
ENDBRANCH  23  25
ENDBRANCH   3  23
TORSDOF 6
