REMARK  2 active torsions:
REMARK  status: ('A' for Active; 'I' for Inactive)
REMARK    1  A    between atoms: C_6  and  C_14 
REMARK    2  A    between atoms: C_6  and  C_7 
ROOT
HETATM    1  O   LIG     1      -2.191   1.400  -3.647  1.00  0.00    -0.242 OA
HETATM    2  C   LIG     1      -2.175   0.872  -2.504  1.00  0.00     0.373 C 
HETATM    3  N   LIG     1      -2.087  -0.545  -2.368  1.00  0.00    -0.155 NA
HETATM    4  N   LIG     1      -2.293   1.682  -1.336  1.00  0.00    -0.155 NA
HETATM    5  C   LIG     1      -2.211   1.079  -0.039  1.00  0.00     0.271 C 
HETATM    6  C   LIG     1      -1.544  -0.291   0.128  1.00  0.00     0.161 C 
HETATM    7  C   LIG     1      -2.018  -1.130  -1.063  1.00  0.00     0.271 C 
HETATM    8  O   LIG     1      -2.297  -2.353  -0.929  1.00  0.00    -0.269 OA
HETATM    9  O   LIG     1      -2.644   1.721   0.956  1.00  0.00    -0.269 OA
ENDROOT
BRANCH   6  10
HETATM   10  C   LIG     1      -1.986  -0.965   1.470  1.00  0.00     0.022 C 
HETATM   11  C   LIG     1      -1.316  -0.395   2.730  1.00  0.00     0.001 C 
ENDBRANCH   6  10
BRANCH   6  12
HETATM   12  C   LIG     1       0.004  -0.192   0.070  1.00  0.00    -0.032 C 
HETATM   13  C   LIG     1       0.676   1.188   0.115  1.00  0.00     0.023 C 
HETATM   14  C   LIG     1       2.045   1.232   0.804  1.00  0.00     0.004 C 
HETATM   15  C   LIG     1       3.192   0.834  -0.136  1.00  0.00     0.001 C 
HETATM   16  C   LIG     1       2.907  -0.430  -0.958  1.00  0.00     0.005 C 
HETATM   17  C   LIG     1       2.216  -1.512  -0.126  1.00  0.00     0.025 C 
HETATM   18  C   LIG     1       0.714  -1.353  -0.057  1.00  0.00    -0.034 C 
ENDBRANCH   6  12
TORSDOF 2
