REMARK  0 active torsions:
REMARK  status: ('A' for Active; 'I' for Inactive)
ROOT
HETATM    1  O   LIG     1      -2.235  -1.403  -0.129  1.00  0.00    -0.242 OA
HETATM    2  C   LIG     1      -1.171  -0.729  -0.068  1.00  0.00     0.371 A 
HETATM    3  N   LIG     1      -1.229   0.631  -0.037  1.00  0.00    -0.187 NA
HETATM    4  C   LIG     1      -0.093   1.375   0.029  1.00  0.00     0.138 A 
HETATM    5  C   LIG     1       1.150   0.745   0.067  1.00  0.00     0.217 A 
HETATM    6  F   LIG     1       2.290   1.478   0.133  1.00  0.00    -0.197 F 
HETATM    7  N   LIG     1       0.034  -1.362  -0.032  1.00  0.00    -0.150 NA
HETATM    8  C   LIG     1       1.192  -0.650   0.035  1.00  0.00     0.312 A 
HETATM    9  O   LIG     1       2.300  -1.249   0.068  1.00  0.00    -0.263 OA
ENDROOT
TORSDOF 0
