REMARK  5 active torsions:
REMARK  status: ('A' for Active; 'I' for Inactive)
REMARK    1  A    between atoms: C_2  and  C_3 
REMARK    2  A    between atoms: C_2  and  O_12 
REMARK    3  A    between atoms: C_3  and  C_6 
REMARK    4  A    between atoms: C_3  and  C_4 
REMARK    5  A    between atoms: O_12  and  C_13 
ROOT
HETATM    1  O   LIG     1       0.522  -0.382  -0.248  1.00  0.00    -0.264 OA
HETATM    2  C   LIG     1       0.821  -0.008   0.918  1.00  0.00     0.278 C 
ENDROOT
BRANCH   2   3
HETATM    3  C   LIG     1       2.261   0.063   1.352  1.00  0.00     0.142 C 
BRANCH   3   4
HETATM    4  C   LIG     1       3.165   0.643   0.273  1.00  0.00    -0.011 A 
HETATM    5  C   LIG     1       3.792   1.887   0.482  1.00  0.00    -0.004 A 
HETATM    6  C   LIG     1       4.633   2.432  -0.492  1.00  0.00    -0.000 A 
HETATM    7  C   LIG     1       4.864   1.743  -1.684  1.00  0.00    -0.000 A 
HETATM    8  C   LIG     1       4.245   0.513  -1.909  1.00  0.00    -0.000 A 
HETATM    9  C   LIG     1       3.400  -0.036  -0.941  1.00  0.00    -0.004 A 
ENDBRANCH   3   4
BRANCH   3  10
HETATM   10  C   LIG     1       2.759  -1.296   1.874  1.00  0.00     0.197 C 
HETATM   11  O   LIG     1       2.544  -2.314   0.936  1.00  0.00    -0.220 OA
ENDBRANCH   3  10
ENDBRANCH   2   3
BRANCH   2  12
HETATM   12  O   LIG     1      -0.182   0.293   1.850  1.00  0.00    -0.304 OA
BRANCH  12  13
HETATM   13  C   LIG     1      -1.588   0.225   1.589  1.00  0.00     0.128 C 
HETATM   14  C   LIG     1      -2.049  -1.254   1.318  1.00  0.00     0.066 C 
HETATM   15  C   LIG     1      -3.111  -1.368   0.203  1.00  0.00     0.251 C 
HETATM   16  C   LIG     1      -2.389  -1.363  -1.150  1.00  0.00     0.176 A 
HETATM   17  N   LIG     1      -3.925  -0.153   0.274  1.00  0.00     0.140 N 
HETATM   18  C   LIG     1      -2.377   0.040  -1.574  1.00  0.00     0.176 A 
HETATM   19  O   LIG     1      -3.162  -0.921  -2.241  1.00  0.00    -0.350 OA
HETATM   20  C   LIG     1      -3.092   0.806  -0.455  1.00  0.00     0.251 C 
HETATM   21  C   LIG     1      -2.025   1.312   0.541  1.00  0.00     0.066 C 
HETATM   22  C   LIG     1      -5.287  -0.303  -0.268  1.00  0.00     0.285 C 
ENDBRANCH  12  13
ENDBRANCH   2  12
TORSDOF 5
