REMARK  5 active torsions:
REMARK  status: ('A' for Active; 'I' for Inactive)
REMARK    1  A    between atoms: C_8  and  O_9 
REMARK    2  A    between atoms: O_9  and  C_10 
REMARK    3  A    between atoms: C_10  and  C_11 
REMARK    4  A    between atoms: C_11  and  C_14 
REMARK    5  A    between atoms: C_11  and  C_12 
ROOT
HETATM    1  C   LIG     1      -1.117   0.912  -1.082  1.00  0.00     0.278 C 
HETATM    2  O   LIG     1      -0.975   0.207  -2.120  1.00  0.00    -0.264 OA
ENDROOT
BRANCH   1   3
HETATM    3  O   LIG     1      -0.038   1.137  -0.220  1.00  0.00    -0.304 OA
BRANCH   3   4
HETATM    4  C   LIG     1       1.250   0.547  -0.396  1.00  0.00     0.128 C 
HETATM    5  C   LIG     1       2.265   1.264   0.536  1.00  0.00     0.064 C 
HETATM    6  C   LIG     1       3.529   0.406   0.784  1.00  0.00     0.222 C 
HETATM    7  N   LIG     1       3.068  -0.856   1.371  1.00  0.00     0.135 N 
HETATM    8  C   LIG     1       4.218   0.043  -0.542  1.00  0.00     0.035 C 
HETATM    9  C   LIG     1       4.150  -1.581   2.062  1.00  0.00     0.285 C 
HETATM   10  C   LIG     1       2.578  -1.575   0.191  1.00  0.00     0.222 C 
HETATM   11  C   LIG     1       3.580  -1.287  -0.940  1.00  0.00     0.035 C 
HETATM   12  C   LIG     1       1.185  -0.988  -0.139  1.00  0.00     0.064 C 
ENDBRANCH   3   4
ENDBRANCH   1   3
BRANCH   1  13
HETATM   13  C   LIG     1      -2.460   1.502  -0.741  1.00  0.00     0.142 C 
BRANCH  13  14
HETATM   14  C   LIG     1      -3.352   0.454  -0.104  1.00  0.00    -0.011 A 
HETATM   15  C   LIG     1      -3.800   0.620   1.221  1.00  0.00    -0.004 A 
HETATM   16  C   LIG     1      -4.631  -0.337   1.813  1.00  0.00    -0.000 A 
HETATM   17  C   LIG     1      -5.023  -1.468   1.093  1.00  0.00    -0.000 A 
HETATM   18  C   LIG     1      -4.586  -1.645  -0.222  1.00  0.00    -0.000 A 
HETATM   19  C   LIG     1      -3.754  -0.693  -0.819  1.00  0.00    -0.004 A 
ENDBRANCH  13  14
BRANCH  13  20
HETATM   20  C   LIG     1      -3.138   2.144  -1.966  1.00  0.00     0.197 C 
HETATM   21  O   LIG     1      -2.336   3.163  -2.504  1.00  0.00    -0.220 OA
ENDBRANCH  13  20
ENDBRANCH   1  13
TORSDOF 5
