REMARK  2 active torsions:
REMARK  status: ('A' for Active; 'I' for Inactive)
REMARK    1  A    between atoms: C_4  and  C_5 
REMARK    2  A    between atoms: C_5  and  C_6 
ROOT
HETATM    1  S   LIG     1      -3.678   1.618   1.087  1.00  0.00    -0.037 SA
HETATM    2  C   LIG     1      -2.645   0.543   0.405  1.00  0.00     0.223 A 
HETATM    3  N   LIG     1      -1.355   0.904   0.152  1.00  0.00    -0.222 NA
HETATM    4  C   LIG     1      -0.481   0.028  -0.420  1.00  0.00     0.066 A 
HETATM    5  C   LIG     1      -0.908  -1.269  -0.728  1.00  0.00     0.077 A 
HETATM    6  N   LIG     1      -3.076  -0.712   0.096  1.00  0.00    -0.179 NA
HETATM    7  C   LIG     1      -2.230  -1.620  -0.462  1.00  0.00     0.282 A 
HETATM    8  O   LIG     1      -2.640  -2.780  -0.736  1.00  0.00    -0.265 OA
ENDROOT
BRANCH   4   9
HETATM    9  C   LIG     1       0.948   0.433  -0.659  1.00  0.00     0.046 C 
BRANCH   9  10
HETATM   10  C   LIG     1       1.797   0.164   0.587  1.00  0.00     0.006 C 
HETATM   11  C   LIG     1       3.249   0.575   0.364  1.00  0.00     0.000 C 
ENDBRANCH   9  10
ENDBRANCH   4   9
TORSDOF 2
