REMARK  2 active torsions:
REMARK  status: ('A' for Active; 'I' for Inactive)
REMARK    1  A    between atoms: C_2  and  C_3 
REMARK    2  A    between atoms: C_3  and  C_4 
ROOT
HETATM    1  C   LIG     1       0.000   0.603  -0.277  1.00  0.00    -0.020 A 
HETATM    2  C   LIG     1       0.709   0.775   0.924  1.00  0.00    -0.002 A 
HETATM    3  C   LIG     1       1.952   0.159   1.104  1.00  0.00     0.027 A 
HETATM    4  C   LIG     1       2.501  -0.629   0.088  1.00  0.00     0.131 A 
HETATM    5  O   LIG     1       3.739  -1.237   0.282  1.00  0.00    -0.190 OA
HETATM    6  C   LIG     1       1.801  -0.800  -1.114  1.00  0.00     0.027 A 
HETATM    7  C   LIG     1       0.559  -0.186  -1.297  1.00  0.00    -0.002 A 
ENDROOT
BRANCH   1   8
HETATM    8  C   LIG     1      -1.339   1.267  -0.476  1.00  0.00     0.068 C 
BRANCH   8   9
HETATM    9  C   LIG     1      -2.486   0.249  -0.517  1.00  0.00     0.343 C 
HETATM   10  N   LIG     1      -2.650  -0.398   0.783  1.00  0.00     0.618 N 
ENDBRANCH   8   9
ENDBRANCH   1   8
TORSDOF 2
