REMARK  2 active torsions:
REMARK  status: ('A' for Active; 'I' for Inactive)
REMARK       I    between atoms: C_2  and  N_3 
REMARK    1  A    between atoms: N_3  and  C_4 
REMARK    2  A    between atoms: C_7  and  O_8 
ROOT
HETATM    1  C   LIG     1       0.920  -0.793  -0.106  1.00  0.00     0.085 A 
HETATM    2  C   LIG     1       0.134  -1.823   0.429  1.00  0.00     0.021 A 
HETATM    3  C   LIG     1      -1.254  -1.681   0.520  1.00  0.00     0.026 A 
HETATM    4  C   LIG     1      -1.881  -0.516   0.064  1.00  0.00     0.094 A 
HETATM    5  C   LIG     1      -1.097   0.510  -0.496  1.00  0.00     0.026 A 
HETATM    6  C   LIG     1       0.291   0.368  -0.587  1.00  0.00     0.021 A 
ENDROOT
BRANCH   1   7
HETATM    7  N   LIG     1       2.342  -0.974  -0.216  1.00  0.00    -0.212 NA
HETATM    8  C   LIG     1       3.305   0.087  -0.131  1.00  0.00     0.256 C 
HETATM    9  C   LIG     1       3.070   1.310   0.704  1.00  0.00     0.100 C 
HETATM   10  O   LIG     1       4.407  -0.035  -0.729  1.00  0.00    -0.270 OA
ENDBRANCH   1   7
BRANCH   4  11
HETATM   11  O   LIG     1      -3.276  -0.421   0.179  1.00  0.00    -0.328 OA
HETATM   12  C   LIG     1      -4.042   0.703  -0.243  1.00  0.00     0.181 C 
ENDBRANCH   4  11
TORSDOF 2
