REMARK  2 active torsions:
REMARK  status: ('A' for Active; 'I' for Inactive)
REMARK    1  A    between atoms: C_2  and  O_3 
REMARK    2  A    between atoms: O_3  and  C_4 
ROOT
HETATM    1  N   LIG     1       2.660   0.450  -0.642  1.00  0.00    -0.032 NA
HETATM    2  C   LIG     1       1.484  -0.350  -0.557  1.00  0.00     0.373 C 
HETATM    3  O   LIG     1       1.552  -1.589  -0.785  1.00  0.00    -0.242 OA
ENDROOT
BRANCH   2   4
HETATM    4  O   LIG     1       0.266   0.247  -0.221  1.00  0.00    -0.287 OA
BRANCH   4   5
HETATM    5  C   LIG     1      -0.947  -0.490  -0.117  1.00  0.00     0.153 C 
HETATM    6  C   LIG     1      -2.083   0.448   0.263  1.00  0.00     0.035 C 
ENDBRANCH   4   5
ENDBRANCH   2   4
TORSDOF 2
