REMARK  2 active torsions:
REMARK  status: ('A' for Active; 'I' for Inactive)
REMARK    1  A    between atoms: C_2  and  O_4 
REMARK    2  A    between atoms: O_4  and  C_5 
ROOT
HETATM    1  C   LIG     1       2.799   0.794  -0.211  1.00  0.00     0.154 C 
HETATM    2  C   LIG     1       2.498   1.921   0.796  1.00  0.00     0.040 C 
HETATM    3  C   LIG     1       1.278   1.471   1.602  1.00  0.00     0.004 C 
HETATM    4  C   LIG     1       0.849   0.109   1.033  1.00  0.00     0.003 C 
HETATM    5  C   LIG     1      -0.682  -0.155   1.168  1.00  0.00     0.001 C 
HETATM    6  C   LIG     1      -1.018  -1.678   1.298  1.00  0.00     0.004 C 
HETATM    7  C   LIG     1      -2.074  -2.234   0.327  1.00  0.00     0.022 C 
HETATM    8  C   LIG     1      -3.224  -1.288   0.095  1.00  0.00    -0.042 C 
HETATM    9  C   LIG     1      -4.433  -1.780  -0.229  1.00  0.00     0.029 C 
HETATM   10  C   LIG     1      -5.577  -0.889  -0.502  1.00  0.00     0.172 C 
HETATM   11  O   LIG     1      -6.703  -1.385  -0.766  1.00  0.00    -0.291 OA
HETATM   12  C   LIG     1      -5.419   0.604  -0.426  1.00  0.00     0.070 C 
HETATM   13  C   LIG     1      -3.961   1.002  -0.676  1.00  0.00     0.012 C 
HETATM   14  C   LIG     1      -3.023   0.206   0.260  1.00  0.00     0.019 C 
HETATM   15  C   LIG     1      -1.532   0.609   0.117  1.00  0.00     0.004 C 
HETATM   16  C   LIG     1      -0.972   0.447  -1.313  1.00  0.00     0.000 C 
HETATM   17  C   LIG     1       0.501   0.856  -1.388  1.00  0.00     0.003 C 
HETATM   18  C   LIG     1       1.426   0.071  -0.401  1.00  0.00     0.034 C 
HETATM   19  C   LIG     1       1.629  -1.378  -0.911  1.00  0.00     0.003 C 
HETATM   20  C   LIG     1       3.343   1.325  -1.483  1.00  0.00    -0.051 C 
HETATM   21  C   LIG     1       3.787   1.756  -2.518  1.00  0.00    -0.012 C 
ENDROOT
BRANCH   1  22
HETATM   22  O   LIG     1       3.744  -0.124   0.367  1.00  0.00    -0.294 OA
BRANCH  22  23
HETATM   23  C   LIG     1       5.086   0.163   0.661  1.00  0.00     0.273 C 
HETATM   24  C   LIG     1       5.933  -0.895   1.281  1.00  0.00     0.106 C 
HETATM   25  O   LIG     1       5.582   1.294   0.407  1.00  0.00    -0.264 OA
ENDBRANCH  22  23
ENDBRANCH   1  22
TORSDOF 2
