REMARK  3 active torsions:
REMARK  status: ('A' for Active; 'I' for Inactive)
REMARK    1  A    between atoms: C_4  and  C_5 
REMARK    2  A    between atoms: C_5  and  C_6 
REMARK    3  A    between atoms: C_12  and  C_13 
ROOT
HETATM    1  F   LIG     1       1.294   1.012   2.245  1.00  0.00    -0.204 F 
HETATM    2  C   LIG     1       0.456   0.553   1.282  1.00  0.00     0.140 A 
HETATM    3  C   LIG     1      -0.923   0.599   1.509  1.00  0.00     0.026 A 
HETATM    4  C   LIG     1      -1.825   0.096   0.556  1.00  0.00    -0.010 A 
HETATM    5  C   LIG     1      -1.317  -0.449  -0.637  1.00  0.00    -0.004 A 
HETATM    6  C   LIG     1       0.060  -0.497  -0.866  1.00  0.00     0.002 A 
HETATM    7  C   LIG     1       0.961   0.006   0.087  1.00  0.00     0.028 A 
ENDROOT
BRANCH   7   8
HETATM    8  C   LIG     1       2.421  -0.046  -0.173  1.00  0.00     0.002 A 
HETATM    9  C   LIG     1       3.228   1.086   0.043  1.00  0.00     0.000 A 
HETATM   10  C   LIG     1       4.602   1.033  -0.212  1.00  0.00     0.000 A 
HETATM   11  C   LIG     1       5.182  -0.145  -0.687  1.00  0.00     0.000 A 
HETATM   12  C   LIG     1       4.389  -1.273  -0.911  1.00  0.00     0.000 A 
HETATM   13  C   LIG     1       3.015  -1.225  -0.658  1.00  0.00     0.000 A 
ENDBRANCH   7   8
BRANCH   4  14
HETATM   14  C   LIG     1      -3.318   0.167   0.817  1.00  0.00     0.110 C 
HETATM   15  C   LIG     1      -3.979  -1.214   0.731  1.00  0.00     0.016 C 
BRANCH  14  16
HETATM   16  C   LIG     1      -3.978   1.139  -0.122  1.00  0.00     0.189 C 
HETATM   17  O   LIG     1      -4.035   0.873  -1.487  1.00  0.00    -0.647 OA
HETATM   18  O   LIG     1      -4.483   2.203   0.328  1.00  0.00    -0.647 OA
ENDBRANCH  14  16
ENDBRANCH   4  14
TORSDOF 3
