REMARK  0 active torsions:
REMARK  status: ('A' for Active; 'I' for Inactive)
ROOT
HETATM    1  C   LIG     1       2.672  -0.831  -1.195  1.00  0.00     0.005 C 
HETATM    2  C   LIG     1       2.901   0.478  -0.411  1.00  0.00     0.054 C 
HETATM    3  C   LIG     1       3.805   0.352   0.896  1.00  0.00     0.187 C 
HETATM    4  O   LIG     1       4.662   1.482   1.017  1.00  0.00    -0.335 OA
HETATM    5  C   LIG     1       5.673   1.593   0.020  1.00  0.00     0.145 C 
HETATM    6  C   LIG     1       6.118   0.266  -0.637  1.00  0.00     0.030 C 
HETATM    7  C   LIG     1       7.536   0.380  -1.209  1.00  0.00     0.003 C 
HETATM    8  C   LIG     1       6.026  -0.881   0.370  1.00  0.00     0.007 C 
HETATM    9  C   LIG     1       4.645  -0.951   1.043  1.00  0.00     0.056 C 
HETATM   10  O   LIG     1       2.930   0.406   2.028  1.00  0.00    -0.337 OA
HETATM   11  C   LIG     1       1.630   0.344   1.514  1.00  0.00     0.118 C 
HETATM   12  C   LIG     1       0.542   1.063   2.286  1.00  0.00     0.030 C 
HETATM   13  C   LIG     1      -0.528   1.375   1.193  1.00  0.00     0.003 C 
HETATM   14  C   LIG     1      -1.884   0.608   1.371  1.00  0.00     0.005 C 
HETATM   15  C   LIG     1      -1.786  -0.836   1.941  1.00  0.00     0.025 C 
HETATM   16  C   LIG     1      -2.931  -1.756   1.580  1.00  0.00    -0.035 C 
HETATM   17  C   LIG     1      -3.963  -1.427   0.770  1.00  0.00    -0.046 C 
HETATM   18  C   LIG     1      -4.929  -2.539   0.399  1.00  0.00     0.055 C 
HETATM   19  C   LIG     1      -5.969  -2.146  -0.655  1.00  0.00     0.156 C 
HETATM   20  O   LIG     1      -7.067  -1.527  -0.035  1.00  0.00    -0.223 OA
HETATM   21  C   LIG     1      -5.339  -1.225  -1.702  1.00  0.00     0.034 C 
HETATM   22  C   LIG     1      -4.957   0.120  -1.077  1.00  0.00     0.006 C 
HETATM   23  C   LIG     1      -4.130   0.012   0.262  1.00  0.00     0.015 C 
HETATM   24  C   LIG     1      -4.919   0.786   1.353  1.00  0.00     0.004 C 
HETATM   25  C   LIG     1      -2.704   0.645   0.060  1.00  0.00     0.004 C 
HETATM   26  C   LIG     1      -1.920  -0.018  -1.118  1.00  0.00     0.000 C 
HETATM   27  C   LIG     1      -0.386  -0.041  -0.961  1.00  0.00     0.000 C 
HETATM   28  C   LIG     1       0.177   1.191  -0.209  1.00  0.00     0.003 C 
HETATM   29  C   LIG     1       0.014   2.447  -1.104  1.00  0.00     0.000 C 
HETATM   30  C   LIG     1       1.660   1.069   0.226  1.00  0.00     0.032 C 
ENDROOT
TORSDOF 0
