REMARK  6 active torsions:
REMARK  status: ('A' for Active; 'I' for Inactive)
REMARK    1  A    between atoms: C_2  and  C_18 
REMARK       I    between atoms: C_2  and  N_3 
REMARK    2  A    between atoms: N_3  and  C_13 
REMARK    3  A    between atoms: N_3  and  C_4 
REMARK    4  A    between atoms: C_10  and  C_11 
REMARK    5  A    between atoms: C_13  and  C_15 
REMARK    6  A    between atoms: C_15  and  O_16 
ROOT
HETATM    1  O   LIG     1      -1.694   2.480   0.064  1.00  0.00    -0.271 OA
HETATM    2  C   LIG     1      -0.451   2.295  -0.048  1.00  0.00     0.254 C 
HETATM    3  N   LIG     1       0.070   0.944  -0.075  1.00  0.00    -0.298 N 
ENDROOT
BRANCH   3   4
HETATM    4  C   LIG     1       1.526   0.669   0.055  1.00  0.00     0.118 C 
HETATM    5  C   LIG     1       1.986   0.835   1.513  1.00  0.00     0.027 C 
BRANCH   4   6
HETATM    6  C   LIG     1       1.933  -0.728  -0.467  1.00  0.00     0.165 C 
BRANCH   6   7
HETATM    7  O   LIG     1       3.338  -0.868  -0.406  1.00  0.00    -0.350 OA
HETATM    8  C   LIG     1       3.701  -2.156  -0.850  1.00  0.00     0.174 C 
ENDBRANCH   6   7
ENDBRANCH   4   6
ENDBRANCH   3   4
BRANCH   3   9
HETATM    9  C   LIG     1      -0.875  -0.127  -0.297  1.00  0.00     0.054 A 
HETATM   10  C   LIG     1      -1.203  -0.507  -1.622  1.00  0.00    -0.006 A 
HETATM   11  C   LIG     1      -0.734   0.291  -2.810  1.00  0.00     0.033 C 
HETATM   12  C   LIG     1      -2.062  -1.594  -1.839  1.00  0.00    -0.003 A 
HETATM   13  C   LIG     1      -2.586  -2.308  -0.764  1.00  0.00    -0.001 A 
HETATM   14  C   LIG     1      -2.304  -1.913   0.542  1.00  0.00    -0.003 A 
HETATM   15  C   LIG     1      -1.480  -0.803   0.794  1.00  0.00    -0.007 A 
BRANCH  15  16
HETATM   16  C   LIG     1      -1.324  -0.334   2.224  1.00  0.00     0.028 C 
HETATM   17  C   LIG     1      -2.637   0.226   2.769  1.00  0.00     0.005 C 
ENDBRANCH  15  16
ENDBRANCH   3   9
BRANCH   2  18
HETATM   18  C   LIG     1       0.426   3.502  -0.231  1.00  0.00     0.183 C 
HETATM   19 CL   LIG     1       0.827   3.699  -1.954  1.00  0.00    -0.103 Cl
ENDBRANCH   2  18
TORSDOF 6
