REMARK  1 active torsions:
REMARK  status: ('A' for Active; 'I' for Inactive)
REMARK    1  A    between atoms: C_2  and  C_3 
ROOT
HETATM    1  C   LIG     1      -0.871  -1.113   0.482  1.00  0.00     0.001 C 
HETATM    2  C   LIG     1      -0.119  -0.078  -0.364  1.00  0.00     0.016 C 
HETATM    3  C   LIG     1       1.395  -0.302  -0.247  1.00  0.00     0.001 C 
ENDROOT
BRANCH   2   4
HETATM    4  C   LIG     1      -0.510   1.347   0.065  1.00  0.00     0.095 C 
HETATM    5 CL   LIG     1       0.109   2.566  -1.082  1.00  0.00    -0.114 Cl
ENDBRANCH   2   4
TORSDOF 1
