REMARK  2 active torsions:
REMARK  status: ('A' for Active; 'I' for Inactive)
REMARK    1  A    between atoms: C_6  and  C_7 
REMARK    2  A    between atoms: C_18  and  C_20 
ROOT
HETATM    1  C   LIG     1      -1.567  -0.738   2.076  1.00  0.00     0.000 C 
HETATM    2  C   LIG     1      -1.092  -0.565   0.602  1.00  0.00     0.005 C 
HETATM    3  C   LIG     1       0.468  -0.181   0.697  1.00  0.00     0.022 C 
HETATM    4  C   LIG     1       1.464  -1.332   0.420  1.00  0.00     0.009 C 
HETATM    5  C   LIG     1       2.902  -0.866   0.671  1.00  0.00     0.022 C 
HETATM    6  C   LIG     1       3.245   0.331  -0.195  1.00  0.00    -0.045 C 
HETATM    7  C   LIG     1       2.293   1.229  -0.511  1.00  0.00    -0.013 C 
HETATM    8  C   LIG     1       0.889   1.073  -0.062  1.00  0.00    -0.027 C 
HETATM    9  C   LIG     1       0.035   2.095  -0.213  1.00  0.00    -0.030 C 
HETATM   10  C   LIG     1      -1.395   1.964   0.211  1.00  0.00     0.026 C 
HETATM   11  C   LIG     1      -1.368  -1.911  -0.158  1.00  0.00     0.000 C 
HETATM   12  C   LIG     1      -2.760  -2.028  -0.835  1.00  0.00     0.001 C 
HETATM   13  C   LIG     1      -3.846  -1.130  -0.228  1.00  0.00     0.010 C 
HETATM   14  C   LIG     1      -1.888   0.555  -0.169  1.00  0.00     0.014 C 
HETATM   15  C   LIG     1      -3.461   0.387  -0.217  1.00  0.00     0.079 C 
HETATM   16  C   LIG     1      -4.158   1.081   0.982  1.00  0.00     0.011 C 
ENDROOT
BRANCH  15  17
HETATM   17  C   LIG     1      -4.030   1.034  -1.483  1.00  0.00     0.184 C 
HETATM   18  O   LIG     1      -3.206   1.668  -2.411  1.00  0.00    -0.647 OA
HETATM   19  O   LIG     1      -5.274   1.012  -1.694  1.00  0.00    -0.647 OA
ENDBRANCH  15  17
BRANCH   6  20
HETATM   20  C   LIG     1       4.660   0.516  -0.720  1.00  0.00     0.018 C 
HETATM   21  C   LIG     1       5.694   0.419   0.408  1.00  0.00     0.004 C 
HETATM   22  C   LIG     1       4.962  -0.494  -1.832  1.00  0.00     0.004 C 
ENDBRANCH   6  20
TORSDOF 2
