REMARK  0 active torsions:
REMARK  status: ('A' for Active; 'I' for Inactive)
ROOT
HETATM    1  O   LIG     1       4.034  -2.556  -0.475  1.00  0.00    -0.224 OA
HETATM    2  C   LIG     1       3.889  -1.181  -0.732  1.00  0.00     0.152 C 
HETATM    3  C   LIG     1       2.601  -0.915  -1.550  1.00  0.00     0.033 C 
HETATM    4  C   LIG     1       2.076   0.512  -1.286  1.00  0.00     0.003 C 
HETATM    5  C   LIG     1       1.022   0.956  -2.319  1.00  0.00     0.000 C 
HETATM    6  C   LIG     1      -0.320   0.271  -2.104  1.00  0.00     0.000 C 
HETATM    7  C   LIG     1      -0.879   0.567  -0.700  1.00  0.00     0.003 C 
HETATM    8  C   LIG     1      -2.294  -0.076  -0.531  1.00  0.00     0.007 C 
HETATM    9  C   LIG     1      -2.429  -1.539  -1.002  1.00  0.00     0.008 C 
HETATM   10  C   LIG     1      -3.679  -2.081  -0.318  1.00  0.00     0.065 C 
HETATM   11  C   LIG     1       3.959  -0.359   0.580  1.00  0.00     0.033 C 
HETATM   12  C   LIG     1       2.565  -0.112   1.171  1.00  0.00     0.003 C 
HETATM   13  C   LIG     1       1.604   0.687   0.209  1.00  0.00     0.003 C 
HETATM   14  C   LIG     1       1.717   2.197   0.555  1.00  0.00     0.000 C 
HETATM   15  C   LIG     1       0.126   0.131   0.403  1.00  0.00     0.030 C 
HETATM   16  C   LIG     1      -0.469   0.339   1.835  1.00  0.00     0.152 C 
HETATM   17  O   LIG     1      -0.600   1.679   2.244  1.00  0.00    -0.224 OA
HETATM   18  C   LIG     1      -1.808  -0.394   1.993  1.00  0.00     0.040 C 
HETATM   19  C   LIG     1      -2.870  -0.056   0.908  1.00  0.00     0.054 C 
HETATM   20  C   LIG     1      -3.627   1.259   1.197  1.00  0.00     0.007 C 
HETATM   21  C   LIG     1      -3.845  -1.196   0.861  1.00  0.00     0.150 C 
HETATM   22  O   LIG     1      -4.678  -1.407   1.730  1.00  0.00    -0.296 OA
ENDROOT
TORSDOF 0
