REMARK  5 active torsions:
REMARK  status: ('A' for Active; 'I' for Inactive)
REMARK       I    between atoms: N_2  and  C_3 
REMARK       I    between atoms: C_3  and  N_4 
REMARK    1  A    between atoms: N_4  and  C_5 
REMARK    2  A    between atoms: C_5  and  C_6 
REMARK    3  A    between atoms: C_6  and  S_7 
REMARK    4  A    between atoms: S_7  and  C_8 
REMARK    5  A    between atoms: C_8  and  C_9 
ROOT
HETATM    1  C   LIG     1       5.825   1.476   0.380  1.00  0.00     0.172 C 
HETATM    2  N   LIG     1       4.469   1.233  -0.101  1.00  0.00    -0.083 NA
HETATM    3  C   LIG     1       3.808  -0.031   0.088  1.00  0.00     0.751 C 
HETATM    4  N   LIG     1       2.457  -0.226  -0.386  1.00  0.00    -0.085 NA
HETATM    5  N   LIG     1       4.450  -0.992   0.691  1.00  0.00     0.018 NA
HETATM    6  C   LIG     1       3.924  -2.270   0.943  1.00  0.00     0.223 C 
HETATM    7  N   LIG     1       3.492  -3.323   1.152  1.00  0.00    -0.169 NA
ENDROOT
BRANCH   4   8
HETATM    8  C   LIG     1       1.679   0.849  -1.007  1.00  0.00     0.157 C 
BRANCH   8   9
HETATM    9  C   LIG     1       0.265   0.386  -1.362  1.00  0.00     0.085 C 
BRANCH   9  10
HETATM   10  S   LIG     1      -0.693   0.029   0.152  1.00  0.00    -0.132 SA
BRANCH  10  11
HETATM   11  C   LIG     1      -2.199  -0.480  -0.740  1.00  0.00     0.104 C 
BRANCH  11  12
HETATM   12  C   LIG     1      -3.253  -0.878   0.245  1.00  0.00     0.085 A 
HETATM   13  C   LIG     1      -4.473  -0.265   0.453  1.00  0.00     0.076 A 
HETATM   14  C   LIG     1      -5.016   0.936  -0.253  1.00  0.00     0.053 C 
HETATM   15  N   LIG     1      -5.123  -0.938   1.416  1.00  0.00    -0.227 NA
HETATM   16  C   LIG     1      -4.294  -1.937   1.772  1.00  0.00     0.199 A 
HETATM   17  N   LIG     1      -3.136  -1.934   1.076  1.00  0.00    -0.227 NA
ENDBRANCH  11  12
ENDBRANCH  10  11
ENDBRANCH   9  10
ENDBRANCH   8   9
ENDBRANCH   4   8
TORSDOF 5
