REMARK  0 active torsions:
REMARK  status: ('A' for Active; 'I' for Inactive)
ROOT
HETATM    1  O   LIG     1      -6.000  -1.139   0.661  1.00  0.00    -0.190 OA
HETATM    2  C   LIG     1      -4.639  -0.968   0.422  1.00  0.00     0.131 A 
HETATM    3  C   LIG     1      -4.023   0.266   0.656  1.00  0.00     0.027 A 
HETATM    4  C   LIG     1      -2.650   0.432   0.414  1.00  0.00     0.002 A 
HETATM    5  C   LIG     1      -2.050   1.675   0.650  1.00  0.00    -0.000 A 
HETATM    6  C   LIG     1      -0.692   1.859   0.412  1.00  0.00    -0.005 A 
HETATM    7  C   LIG     1       0.098   0.797  -0.044  1.00  0.00    -0.026 A 
HETATM    8  C   LIG     1      -0.483  -0.473  -0.312  1.00  0.00    -0.026 A 
HETATM    9  C   LIG     1       0.391  -1.651  -0.788  1.00  0.00     0.026 C 
HETATM   10  C   LIG     1       1.912  -1.370  -0.958  1.00  0.00     0.012 C 
HETATM   11  C   LIG     1       2.372  -0.228  -0.038  1.00  0.00     0.056 C 
HETATM   12  C   LIG     1       2.275  -0.639   1.456  1.00  0.00     0.008 C 
HETATM   13  C   LIG     1       1.540   0.999  -0.411  1.00  0.00     0.029 C 
HETATM   14  C   LIG     1       2.338   2.200   0.105  1.00  0.00     0.013 C 
HETATM   15  C   LIG     1       3.798   1.800  -0.168  1.00  0.00     0.065 C 
HETATM   16  C   LIG     1       3.745   0.307  -0.276  1.00  0.00     0.150 C 
HETATM   17  O   LIG     1       4.726  -0.392  -0.479  1.00  0.00    -0.296 OA
HETATM   18  C   LIG     1      -1.874  -0.654  -0.072  1.00  0.00    -0.004 A 
HETATM   19  C   LIG     1      -2.518  -1.890  -0.303  1.00  0.00     0.002 A 
HETATM   20  C   LIG     1      -3.885  -2.039  -0.057  1.00  0.00     0.027 A 
ENDROOT
TORSDOF 0
