REMARK  4 active torsions:
REMARK  status: ('A' for Active; 'I' for Inactive)
REMARK    1  A    between atoms: C_2  and  C_3 
REMARK    2  A    between atoms: C_4  and  C_5 
REMARK    3  A    between atoms: C_9  and  O_10 
REMARK    4  A    between atoms: C_12  and  O_13 
ROOT
HETATM    1  C   LIG     1      -1.221   0.295   0.601  1.00  0.00     0.092 A 
HETATM    2  C   LIG     1      -1.793  -0.972   0.315  1.00  0.00     0.050 A 
HETATM    3  C   LIG     1      -1.033  -1.927  -0.367  1.00  0.00     0.006 A 
HETATM    4  C   LIG     1       0.253  -1.635  -0.807  1.00  0.00     0.026 A 
HETATM    5  C   LIG     1       0.827  -0.374  -0.570  1.00  0.00     0.117 A 
HETATM    6  C   LIG     1       0.087   0.600   0.150  1.00  0.00     0.122 A 
ENDROOT
BRANCH   1   7
HETATM    7  C   LIG     1      -1.940   1.290   1.430  1.00  0.00     0.213 C 
HETATM    8  O   LIG     1      -1.992   2.498   1.071  1.00  0.00    -0.644 OA
HETATM    9  O   LIG     1      -2.535   0.902   2.627  1.00  0.00    -0.644 OA
ENDBRANCH   1   7
BRANCH   2  10
HETATM   10  C   LIG     1      -3.190  -1.336   0.652  1.00  0.00     0.234 C 
HETATM   11  O   LIG     1      -4.080  -0.462   0.822  1.00  0.00    -0.283 OA
ENDBRANCH   2  10
BRANCH   6  12
HETATM   12  O   LIG     1       0.602   1.875   0.468  1.00  0.00    -0.326 OA
HETATM   13  C   LIG     1       1.887   2.387   0.133  1.00  0.00     0.181 C 
ENDBRANCH   6  12
BRANCH   5  14
HETATM   14  O   LIG     1       2.119  -0.078  -1.033  1.00  0.00    -0.326 OA
HETATM   15  C   LIG     1       2.953  -0.973  -1.762  1.00  0.00     0.181 C 
ENDBRANCH   5  14
TORSDOF 4
