REMARK  3 active torsions:
REMARK  status: ('A' for Active; 'I' for Inactive)
REMARK    1  A    between atoms: C_2  and  N_3 
REMARK    2  A    between atoms: C_5  and  C_20 
REMARK    3  A    between atoms: C_10  and  N_11 
ROOT
HETATM    1  N   LIG     1       2.199   0.182   0.746  1.00  0.00    -0.311 N 
HETATM    2  C   LIG     1       3.495  -0.233   0.604  1.00  0.00     0.086 A 
HETATM    3  C   LIG     1       3.853  -1.210  -0.341  1.00  0.00     0.120 A 
HETATM    4  C   LIG     1       2.843  -1.764  -1.154  1.00  0.00     0.207 A 
HETATM    5  C   LIG     1       1.515  -1.332  -1.002  1.00  0.00     0.094 A 
HETATM    6  C   LIG     1       1.208  -0.352  -0.039  1.00  0.00     0.167 A 
HETATM    7  N   LIG     1      -0.083   0.057   0.104  1.00  0.00    -0.044 NA
HETATM    8  C   LIG     1      -1.088  -0.451  -0.659  1.00  0.00     0.729 A 
HETATM    9  N   LIG     1      -0.801  -1.397  -1.593  1.00  0.00    -0.059 NA
HETATM   10  C   LIG     1       0.466  -1.845  -1.780  1.00  0.00     0.124 A 
HETATM   11  O   LIG     1       3.123  -2.642  -2.016  1.00  0.00    -0.286 OA
ENDROOT
BRANCH   8  12
HETATM   12  N   LIG     1      -2.443   0.011  -0.484  1.00  0.00    -0.178 N 
HETATM   13  C   LIG     1      -3.476  -0.424  -1.435  1.00  0.00     0.158 C 
HETATM   14  C   LIG     1      -4.842   0.165  -1.071  1.00  0.00     0.315 C 
HETATM   15  N   LIG     1      -5.083   0.027   0.368  1.00  0.00     0.343 N 
HETATM   16  C   LIG     1      -4.126   0.802   1.182  1.00  0.00     0.315 C 
HETATM   17  C   LIG     1      -2.764   1.058   0.498  1.00  0.00     0.158 C 
ENDBRANCH   8  12
BRANCH   1  18
HETATM   18  C   LIG     1       1.888   1.209   1.756  1.00  0.00     0.108 C 
HETATM   19  C   LIG     1       1.722   2.578   1.101  1.00  0.00     0.027 C 
ENDBRANCH   1  18
BRANCH   3  20
HETATM   20  C   LIG     1       5.277  -1.625  -0.454  1.00  0.00     0.215 C 
HETATM   21  O   LIG     1       6.245  -1.031   0.352  1.00  0.00    -0.644 OA
HETATM   22  O   LIG     1       5.630  -2.517  -1.273  1.00  0.00    -0.644 OA
ENDBRANCH   3  20
TORSDOF 3
