REMARK  0 active torsions:
REMARK  status: ('A' for Active; 'I' for Inactive)
ROOT
HETATM    1  O   LIG     1      -0.205   2.390  -0.138  1.00  0.00    -0.265 OA
HETATM    2  C   LIG     1      -0.096   1.137  -0.065  1.00  0.00     0.282 A 
HETATM    3  N   LIG     1       1.135   0.560  -0.001  1.00  0.00    -0.186 NA
HETATM    4  C   LIG     1       1.266  -0.792   0.077  1.00  0.00     0.202 A 
HETATM    5  N   LIG     1       0.162  -1.584   0.092  1.00  0.00    -0.222 NA
HETATM    6  C   LIG     1      -1.083  -1.046   0.029  1.00  0.00     0.106 A 
HETATM    7  C   LIG     1      -1.241   0.337  -0.051  1.00  0.00     0.083 A 
ENDROOT
TORSDOF 0
