REMARK  2 active torsions:
REMARK  status: ('A' for Active; 'I' for Inactive)
REMARK    1  A    between atoms: C_9  and  S_10 
REMARK    2  A    between atoms: S_10  and  C_11 
ROOT
HETATM    1  O   LIG     1      -6.239  -0.198  -1.804  1.00  0.00    -0.291 OA
HETATM    2  C   LIG     1      -5.046  -0.481  -1.518  1.00  0.00     0.172 C 
HETATM    3  C   LIG     1      -4.233  -1.306  -2.474  1.00  0.00     0.070 C 
HETATM    4  C   LIG     1      -2.730  -1.227  -2.161  1.00  0.00     0.012 C 
HETATM    5  C   LIG     1      -2.407  -1.382  -0.639  1.00  0.00     0.019 C 
HETATM    6  C   LIG     1      -2.787  -2.808  -0.168  1.00  0.00     0.004 C 
HETATM    7  C   LIG     1      -3.251  -0.379   0.159  1.00  0.00    -0.041 C 
HETATM    8  C   LIG     1      -2.665   0.212   1.419  1.00  0.00     0.037 C 
HETATM    9  C   LIG     1      -1.323   0.950   1.154  1.00  0.00     0.076 C 
HETATM   10  C   LIG     1      -0.604   0.396  -0.125  1.00  0.00    -0.042 C 
HETATM   11  C   LIG     1      -0.875  -1.127  -0.333  1.00  0.00     0.022 C 
HETATM   12  C   LIG     1       0.098  -1.740  -1.383  1.00  0.00     0.005 C 
HETATM   13  C   LIG     1       1.593  -1.622  -0.990  1.00  0.00     0.006 C 
HETATM   14  C   LIG     1       1.942  -0.331  -0.175  1.00  0.00     0.038 C 
HETATM   15  C   LIG     1       2.073  -0.703   1.332  1.00  0.00     0.006 C 
HETATM   16  C   LIG     1       0.884   0.763  -0.430  1.00  0.00    -0.050 C 
HETATM   17  C   LIG     1       1.498   2.078   0.044  1.00  0.00     0.024 C 
HETATM   18  C   LIG     1       3.016   1.876  -0.131  1.00  0.00     0.033 C 
HETATM   19  C   LIG     1       3.223   0.428  -0.650  1.00  0.00     0.105 C 
HETATM   20  O   LIG     1       3.281   0.479  -2.072  1.00  0.00    -0.306 OA
HETATM   21  C   LIG     1       4.520   0.120  -2.548  1.00  0.00     0.272 C 
HETATM   22  C   LIG     1       5.482  -0.181  -1.473  1.00  0.00     0.098 C 
HETATM   23  C   LIG     1       4.591  -0.194  -0.228  1.00  0.00     0.039 C 
HETATM   24  O   LIG     1       4.778   0.020  -3.776  1.00  0.00    -0.264 OA
HETATM   25  C   LIG     1      -4.480  -0.016  -0.242  1.00  0.00     0.029 C 
ENDROOT
BRANCH   9  26
HETATM   26  S   LIG     1      -0.336   0.879   2.703  1.00  0.00    -0.073 SA
BRANCH  26  27
HETATM   27  C   LIG     1      -1.203   2.225   3.522  1.00  0.00     0.199 C 
HETATM   28  C   LIG     1      -0.678   3.621   3.418  1.00  0.00     0.085 C 
HETATM   29  O   LIG     1      -2.190   1.987   4.199  1.00  0.00    -0.284 OA
ENDBRANCH  26  27
ENDBRANCH   9  26
TORSDOF 2
