REMARK  4 active torsions:
REMARK  status: ('A' for Active; 'I' for Inactive)
REMARK    1  A    between atoms: C_20  and  C_22 
REMARK    2  A    between atoms: C_22  and  C_23 
REMARK    3  A    between atoms: C_23  and  O_24 
REMARK    4  A    between atoms: O_24  and  C_25 
ROOT
HETATM    1  O   LIG     1      -5.037   2.227   3.239  1.00  0.00    -0.287 OA
HETATM    2  C   LIG     1      -4.273   1.870   2.303  1.00  0.00     0.195 C 
HETATM    3  C   LIG     1      -3.161   2.728   1.891  1.00  0.00     0.038 C 
HETATM    4  C   LIG     1      -2.414   2.404   0.833  1.00  0.00    -0.020 C 
HETATM    5  C   LIG     1      -2.750   1.232  -0.085  1.00  0.00     0.036 C 
HETATM    6  C   LIG     1      -3.469   1.824  -1.317  1.00  0.00     0.009 C 
HETATM    7  C   LIG     1      -3.717   0.234   0.584  1.00  0.00    -0.038 C 
HETATM    8  C   LIG     1      -3.688  -1.206   0.120  1.00  0.00     0.022 C 
HETATM    9  C   LIG     1      -2.287  -1.827   0.317  1.00  0.00     0.004 C 
HETATM   10  C   LIG     1      -1.168  -0.755   0.416  1.00  0.00     0.004 C 
HETATM   11  C   LIG     1      -1.464   0.438  -0.546  1.00  0.00     0.038 C 
HETATM   12  C   LIG     1      -0.176   1.260  -0.856  1.00  0.00     0.153 C 
HETATM   13  O   LIG     1       0.373   1.763   0.333  1.00  0.00    -0.223 OA
HETATM   14  C   LIG     1       0.888   0.386  -1.591  1.00  0.00     0.036 C 
HETATM   15  C   LIG     1       0.916  -1.125  -1.141  1.00  0.00     0.035 C 
HETATM   16  C   LIG     1       0.153  -1.992  -2.205  1.00  0.00     0.003 C 
HETATM   17  C   LIG     1       0.291  -1.269   0.259  1.00  0.00     0.003 C 
HETATM   18  C   LIG     1       0.669  -2.664   0.743  1.00  0.00     0.003 C 
HETATM   19  C   LIG     1       2.030  -2.953   0.072  1.00  0.00     0.038 C 
HETATM   20  C   LIG     1       2.336  -1.771  -0.898  1.00  0.00     0.180 C 
HETATM   21  O   LIG     1       2.869  -2.308  -2.091  1.00  0.00    -0.218 OA
HETATM   22  C   LIG     1      -4.454   0.570   1.656  1.00  0.00     0.034 C 
ENDROOT
BRANCH  20  23
HETATM   23  C   LIG     1       3.381  -0.806  -0.298  1.00  0.00     0.208 C 
HETATM   24  O   LIG     1       4.103  -0.188  -1.062  1.00  0.00    -0.291 OA
BRANCH  23  25
HETATM   25  C   LIG     1       3.620  -0.610   1.183  1.00  0.00     0.218 C 
BRANCH  25  26
HETATM   26  O   LIG     1       3.647   0.779   1.506  1.00  0.00    -0.294 OA
BRANCH  26  27
HETATM   27  C   LIG     1       4.782   1.585   1.343  1.00  0.00     0.273 C 
HETATM   28  C   LIG     1       4.747   3.007   1.783  1.00  0.00     0.106 C 
HETATM   29  O   LIG     1       5.848   1.107   0.869  1.00  0.00    -0.264 OA
ENDBRANCH  26  27
ENDBRANCH  25  26
ENDBRANCH  23  25
ENDBRANCH  20  23
TORSDOF 4
