REMARK  2 active torsions:
REMARK  status: ('A' for Active; 'I' for Inactive)
REMARK    1  A    between atoms: C_6  and  C_13 
REMARK    2  A    between atoms: C_6  and  C_7 
ROOT
HETATM    1  O   LIG     1       2.228  -3.734  -1.120  1.00  0.00    -0.242 OA
HETATM    2  C   LIG     1       2.100  -2.572  -0.651  1.00  0.00     0.373 C 
HETATM    3  N   LIG     1       2.263  -1.435  -1.496  1.00  0.00    -0.155 NA
HETATM    4  N   LIG     1       1.841  -2.381   0.739  1.00  0.00    -0.155 NA
HETATM    5  C   LIG     1       1.629  -1.061   1.252  1.00  0.00     0.271 C 
HETATM    6  C   LIG     1       1.237   0.076   0.308  1.00  0.00     0.161 C 
HETATM    7  C   LIG     1       2.079  -0.121  -0.958  1.00  0.00     0.271 C 
HETATM    8  O   LIG     1       2.586   0.860  -1.566  1.00  0.00    -0.269 OA
HETATM    9  O   LIG     1       1.686  -0.878   2.500  1.00  0.00    -0.269 OA
ENDROOT
BRANCH   6  10
HETATM   10  C   LIG     1       1.547   1.454   0.984  1.00  0.00     0.022 C 
HETATM   11  C   LIG     1       0.948   2.680   0.279  1.00  0.00     0.001 C 
ENDBRANCH   6  10
BRANCH   6  12
HETATM   12  C   LIG     1      -0.276  -0.038   0.007  1.00  0.00    -0.032 C 
HETATM   13  C   LIG     1      -1.241  -0.248   1.176  1.00  0.00     0.023 C 
HETATM   14  C   LIG     1      -2.670  -0.591   0.744  1.00  0.00     0.005 C 
HETATM   15  C   LIG     1      -3.134   0.363  -0.350  1.00  0.00     0.005 C 
HETATM   16  C   LIG     1      -2.233   0.215  -1.574  1.00  0.00     0.025 C 
HETATM   17  C   LIG     1      -0.769   0.290  -1.218  1.00  0.00    -0.034 C 
ENDBRANCH   6  12
TORSDOF 2
