REMARK  2 active torsions:
REMARK  status: ('A' for Active; 'I' for Inactive)
REMARK    1  A    between atoms: C_12  and  C_13 
REMARK    2  A    between atoms: C_13  and  C_15 
ROOT
HETATM    1  C   LIG     1      -4.204   1.262   1.112  1.00  0.00     0.070 C 
HETATM    2  C   LIG     1      -4.976   0.023   0.755  1.00  0.00     0.172 C 
HETATM    3  O   LIG     1      -6.168  -0.093   1.142  1.00  0.00    -0.291 OA
HETATM    4  C   LIG     1      -4.368  -1.057  -0.039  1.00  0.00     0.029 C 
HETATM    5  C   LIG     1      -3.166  -0.911  -0.619  1.00  0.00    -0.042 C 
HETATM    6  C   LIG     1      -2.511  -2.102  -1.313  1.00  0.00     0.022 C 
HETATM    7  C   LIG     1      -1.056  -2.367  -0.828  1.00  0.00     0.004 C 
HETATM    8  C   LIG     1      -0.476  -1.159  -0.067  1.00  0.00     0.003 C 
HETATM    9  C   LIG     1       1.030  -1.242   0.347  1.00  0.00     0.005 C 
HETATM   10  C   LIG     1       1.954  -2.373  -0.090  1.00  0.00     0.001 C 
HETATM   11  C   LIG     1       3.369  -1.839   0.244  1.00  0.00     0.008 C 
HETATM   12  C   LIG     1       3.183  -0.387   0.763  1.00  0.00     0.065 C 
HETATM   13  C   LIG     1       1.851   0.039   0.099  1.00  0.00     0.064 C 
HETATM   14  C   LIG     1       1.923   0.421  -1.422  1.00  0.00     0.269 C 
HETATM   15  O   LIG     1       3.181   0.887  -1.829  1.00  0.00    -0.190 OA
HETATM   16  C   LIG     1       1.033   1.181   0.652  1.00  0.00     0.035 C 
HETATM   17  C   LIG     1       0.096   1.375  -0.544  1.00  0.00     0.118 C 
HETATM   18  O   LIG     1       0.952   1.423  -1.659  1.00  0.00    -0.332 OA
HETATM   19  C   LIG     1      -0.894   0.167  -0.779  1.00  0.00     0.031 C 
HETATM   20  C   LIG     1      -2.427   0.439  -0.568  1.00  0.00     0.018 C 
HETATM   21  C   LIG     1      -2.953   1.330  -1.720  1.00  0.00     0.004 C 
HETATM   22  C   LIG     1      -2.703   1.126   0.804  1.00  0.00     0.012 C 
ENDROOT
BRANCH  12  23
HETATM   23  C   LIG     1       4.393   0.517   0.594  1.00  0.00     0.183 C 
HETATM   24  O   LIG     1       5.313   0.190  -0.142  1.00  0.00    -0.293 OA
BRANCH  23  25
HETATM   25  C   LIG     1       4.528   1.776   1.406  1.00  0.00     0.246 C 
HETATM   26  O   LIG     1       4.675   2.885   0.561  1.00  0.00    -0.212 OA
ENDBRANCH  23  25
ENDBRANCH  12  23
TORSDOF 2
