REMARK  4 active torsions:
REMARK  status: ('A' for Active; 'I' for Inactive)
REMARK    1  A    between atoms: C_6  and  C_7 
REMARK    2  A    between atoms: C_6  and  C_10 
REMARK    3  A    between atoms: C_7  and  C_8 
REMARK    4  A    between atoms: C_10  and  C_11 
ROOT
HETATM    1  O   LIG     1      -0.932   4.224  -1.058  1.00  0.00    -0.242 OA
HETATM    2  C   LIG     1      -0.681   3.022  -0.776  1.00  0.00     0.373 A 
HETATM    3  N   LIG     1      -1.471   2.337   0.186  1.00  0.00    -0.155 NA
HETATM    4  N   LIG     1       0.389   2.348  -1.424  1.00  0.00    -0.155 NA
HETATM    5  C   LIG     1       0.678   0.974  -1.155  1.00  0.00     0.268 A 
HETATM    6  C   LIG     1      -0.058   0.175  -0.076  1.00  0.00     0.154 A 
HETATM    7  C   LIG     1      -1.185   0.988   0.565  1.00  0.00     0.268 A 
HETATM    8  O   LIG     1      -1.880   0.468   1.480  1.00  0.00    -0.270 OA
HETATM    9  O   LIG     1       1.577   0.411  -1.838  1.00  0.00    -0.270 OA
ENDROOT
BRANCH   6  10
HETATM   10  C   LIG     1       0.957  -0.186   1.052  1.00  0.00     0.044 C 
BRANCH  10  11
HETATM   11  C   LIG     1       2.068  -1.111   0.611  1.00  0.00    -0.025 C 
HETATM   12  C   LIG     1       3.349  -0.733   0.622  1.00  0.00    -0.005 C 
ENDBRANCH  10  11
ENDBRANCH   6  10
BRANCH   6  13
HETATM   13  C   LIG     1      -0.675  -1.084  -0.762  1.00  0.00     0.044 C 
BRANCH  13  14
HETATM   14  C   LIG     1      -1.309  -2.066   0.197  1.00  0.00    -0.025 C 
HETATM   15  C   LIG     1      -2.614  -2.353   0.155  1.00  0.00    -0.005 C 
ENDBRANCH  13  14
ENDBRANCH   6  13
TORSDOF 4
