REMARK  2 active torsions:
REMARK  status: ('A' for Active; 'I' for Inactive)
REMARK    1  A    between atoms: CA_2  and  C_3 
REMARK    2  A    between atoms: CA_2  and  C_6 
ROOT
HETATM    1  N   LIG     1       0.899   0.992   1.639  1.00  0.00     0.629 N 
HETATM    2  CA  LIG     1       0.569   0.676   0.245  1.00  0.00     0.397 C 
ENDROOT
BRANCH   2   3
HETATM    3  C   LIG     1       1.667  -0.145  -0.394  1.00  0.00     0.225 C 
HETATM    4  O   LIG     1       2.274   0.310  -1.560  1.00  0.00    -0.646 OA
HETATM    5  OXT LIG     1       2.052  -1.226   0.128  1.00  0.00    -0.646 OA
ENDBRANCH   2   3
BRANCH   2   6
HETATM    6  C   LIG     1      -0.851   0.032   0.124  1.00  0.00     0.094 C 
HETATM    7  C   LIG     1      -0.967  -1.309   0.876  1.00  0.00     0.014 C 
HETATM    8  C   LIG     1      -1.219  -0.190  -1.356  1.00  0.00     0.014 C 
HETATM    9  S   LIG     1      -2.089   1.177   0.848  1.00  0.00    -0.081 SA
ENDBRANCH   2   6
TORSDOF 2
