REMARK  6 active torsions:
REMARK  status: ('A' for Active; 'I' for Inactive)
REMARK    1  A    between atoms: C_2  and  C_3 
REMARK    2  A    between atoms: C_2  and  C_20 
REMARK    3  A    between atoms: C_3  and  C_4 
REMARK    4  A    between atoms: C_4  and  C_5 
REMARK    5  A    between atoms: C_5  and  N_6 
REMARK    6  A    between atoms: C_9  and  C_10 
ROOT
HETATM    1  N   LIG     1      -0.163  -0.138   0.907  1.00  0.00     0.137 N 
HETATM    2  C   LIG     1      -0.531   1.278   0.700  1.00  0.00     0.253 C 
HETATM    3  C   LIG     1      -2.057   1.438   0.608  1.00  0.00     0.070 C 
HETATM    4  C   LIG     1      -2.654   0.577  -0.529  1.00  0.00     0.149 C 
HETATM    5  O   LIG     1      -2.152   1.053  -1.758  1.00  0.00    -0.221 OA
HETATM    6  C   LIG     1      -2.175  -0.885  -0.315  1.00  0.00     0.070 C 
HETATM    7  C   LIG     1      -0.647  -0.957  -0.226  1.00  0.00     0.253 C 
ENDROOT
BRANCH   1   8
HETATM    8  C   LIG     1       1.302  -0.271   1.066  1.00  0.00     0.251 C 
BRANCH   8   9
HETATM    9  C   LIG     1       1.640  -1.500   1.924  1.00  0.00     0.043 C 
BRANCH   9  10
HETATM   10  C   LIG     1       3.147  -1.640   2.189  1.00  0.00     0.071 C 
BRANCH  10  11
HETATM   11  C   LIG     1       3.905  -2.018   0.940  1.00  0.00     0.173 C 
HETATM   12  O   LIG     1       3.831  -3.219   0.558  1.00  0.00    -0.291 OA
BRANCH  11  13
HETATM   13  C   LIG     1       4.710  -1.051   0.138  1.00  0.00     0.035 A 
HETATM   14  C   LIG     1       5.507  -1.526  -0.925  1.00  0.00     0.005 A 
HETATM   15  C   LIG     1       6.263  -0.644  -1.702  1.00  0.00     0.030 A 
HETATM   16  C   LIG     1       6.235   0.725  -1.435  1.00  0.00     0.140 A 
HETATM   17  C   LIG     1       5.451   1.214  -0.390  1.00  0.00     0.030 A 
HETATM   18  F   LIG     1       6.967   1.579  -2.193  1.00  0.00    -0.204 F 
HETATM   19  C   LIG     1       4.693   0.337   0.392  1.00  0.00     0.005 A 
ENDBRANCH  11  13
ENDBRANCH  10  11
ENDBRANCH   9  10
ENDBRANCH   8   9
ENDBRANCH   1   8
BRANCH   4  20
HETATM   20  C   LIG     1      -4.184   0.735  -0.530  1.00  0.00     0.005 A 
HETATM   21  C   LIG     1      -5.074  -0.334  -0.270  1.00  0.00    -0.001 A 
HETATM   22  C   LIG     1      -6.457  -0.132  -0.292  1.00  0.00     0.011 A 
HETATM   23  C   LIG     1      -6.980   1.130  -0.578  1.00  0.00     0.058 A 
HETATM   24  C   LIG     1      -6.119   2.194  -0.849  1.00  0.00     0.011 A 
HETATM   25 CL   LIG     1      -8.716   1.376  -0.605  1.00  0.00    -0.082 Cl
HETATM   26  C   LIG     1      -4.735   1.998  -0.829  1.00  0.00    -0.001 A 
ENDBRANCH   4  20
TORSDOF 6
