REMARK  1 active torsions:
REMARK  status: ('A' for Active; 'I' for Inactive)
REMARK    1  A    between atoms: C_2  and  C_3 
ROOT
HETATM    1  C   LIG     1       2.520   0.046   0.596  1.00  0.00    -0.022 A 
HETATM    2  C   LIG     1       1.441   0.912   0.354  1.00  0.00    -0.004 A 
HETATM    3  C   LIG     1       0.130   0.415   0.293  1.00  0.00    -0.000 A 
HETATM    4  C   LIG     1      -0.948   1.280   0.048  1.00  0.00    -0.000 A 
HETATM    5  C   LIG     1      -2.257   0.780  -0.013  1.00  0.00     0.000 A 
HETATM    6  C   LIG     1      -3.339   1.640  -0.258  1.00  0.00     0.000 A 
HETATM    7  C   LIG     1      -4.640   1.133  -0.317  1.00  0.00     0.000 A 
HETATM    8  C   LIG     1      -4.872  -0.232  -0.132  1.00  0.00     0.000 A 
HETATM    9  C   LIG     1      -3.804  -1.100   0.113  1.00  0.00     0.000 A 
HETATM   10  C   LIG     1      -2.492  -0.604   0.175  1.00  0.00     0.000 A 
HETATM   11  C   LIG     1      -1.415  -1.468   0.420  1.00  0.00     0.000 A 
HETATM   12  C   LIG     1      -0.105  -0.967   0.480  1.00  0.00    -0.000 A 
HETATM   13  C   LIG     1       0.975  -1.827   0.726  1.00  0.00    -0.000 A 
HETATM   14  C   LIG     1       2.276  -1.324   0.785  1.00  0.00    -0.004 A 
ENDROOT
BRANCH   1  15
HETATM   15  C   LIG     1       3.928   0.580   0.666  1.00  0.00     0.026 C 
HETATM   16  C   LIG     1       4.749   0.131  -0.540  1.00  0.00     0.004 C 
ENDBRANCH   1  15
TORSDOF 1
