REMARK  2 active torsions:
REMARK  status: ('A' for Active; 'I' for Inactive)
REMARK    1  A    between atoms: C_2  and  C_3 
REMARK       I    between atoms: C_2  and  N_10 
REMARK    2  A    between atoms: N_10  and  C_11 
ROOT
HETATM    1  O   LIG     1      -0.166  -1.429   0.843  1.00  0.00    -0.265 OA
HETATM    2  C   LIG     1       0.140  -0.445   0.116  1.00  0.00     0.286 C 
HETATM    3  N   LIG     1      -0.896   0.374  -0.451  1.00  0.00    -0.208 NA
ENDROOT
BRANCH   2   4
HETATM    4  C   LIG     1       1.565  -0.131  -0.155  1.00  0.00     0.101 C 
HETATM    5  C   LIG     1       2.546  -1.063  -0.177  1.00  0.00     0.082 C 
HETATM    6  O   LIG     1       3.902  -0.690  -0.204  1.00  0.00    -0.334 OA
HETATM    7  C   LIG     1       2.256  -2.536  -0.151  1.00  0.00     0.059 C 
HETATM    8  C   LIG     1       4.431   0.594   0.156  1.00  0.00     0.160 C 
HETATM    9  C   LIG     1       3.370   1.540   0.711  1.00  0.00     0.095 C 
HETATM   10  S   LIG     1       1.992   1.590  -0.460  1.00  0.00    -0.105 SA
ENDBRANCH   2   4
BRANCH   3  11
HETATM   11  C   LIG     1      -2.259   0.376   0.006  1.00  0.00     0.085 A 
HETATM   12  C   LIG     1      -3.293   0.631  -0.909  1.00  0.00     0.019 A 
HETATM   13  C   LIG     1      -4.624   0.660  -0.483  1.00  0.00     0.002 A 
HETATM   14  C   LIG     1      -4.933   0.451   0.863  1.00  0.00     0.000 A 
HETATM   15  C   LIG     1      -3.911   0.219   1.787  1.00  0.00     0.002 A 
HETATM   16  C   LIG     1      -2.578   0.188   1.365  1.00  0.00     0.019 A 
ENDBRANCH   3  11
TORSDOF 2
