REMARK  0 active torsions:
REMARK  status: ('A' for Active; 'I' for Inactive)
ROOT
HETATM    1  C   LIG     1       0.758  -1.881  -0.059  1.00  0.00     0.033 C 
HETATM    2  C   LIG     1       0.409  -0.410  -0.042  1.00  0.00    -0.000 A 
HETATM    3  C   LIG     1       1.444   0.548  -0.180  1.00  0.00     0.127 A 
HETATM    4  O   LIG     1       2.784   0.180  -0.333  1.00  0.00    -0.191 OA
HETATM    5  C   LIG     1       1.143   1.913  -0.167  1.00  0.00     0.027 A 
HETATM    6  C   LIG     1      -0.171   2.346  -0.019  1.00  0.00     0.002 A 
HETATM    7  C   LIG     1      -1.202   1.419   0.119  1.00  0.00    -0.004 A 
HETATM    8  C   LIG     1      -0.933   0.040   0.110  1.00  0.00    -0.024 A 
HETATM    9  C   LIG     1      -2.086  -0.918   0.263  1.00  0.00     0.031 C 
ENDROOT
TORSDOF 0
