REMARK  0 active torsions:
REMARK  status: ('A' for Active; 'I' for Inactive)
ROOT
HETATM    1  C   LIG     1      -0.152   1.961  -0.131  1.00  0.00     0.030 C 
HETATM    2  C   LIG     1      -0.048   0.453  -0.032  1.00  0.00    -0.030 A 
HETATM    3  C   LIG     1       1.223  -0.143   0.190  1.00  0.00    -0.026 A 
HETATM    4  C   LIG     1       2.471   0.693   0.330  1.00  0.00     0.030 C 
HETATM    5  C   LIG     1       1.331  -1.539   0.284  1.00  0.00    -0.004 A 
HETATM    6  C   LIG     1       0.205  -2.347   0.160  1.00  0.00    -0.001 A 
HETATM    7  C   LIG     1      -1.046  -1.777  -0.058  1.00  0.00    -0.004 A 
HETATM    8  C   LIG     1      -1.192  -0.383  -0.157  1.00  0.00    -0.026 A 
HETATM    9  C   LIG     1      -2.571   0.178  -0.394  1.00  0.00     0.030 C 
ENDROOT
TORSDOF 0
