REMARK  7 active torsions:
REMARK  status: ('A' for Active; 'I' for Inactive)
REMARK    1  A    between atoms: C_4  and  C_5 
REMARK    2  A    between atoms: C_9  and  C_10 
REMARK    3  A    between atoms: C_10  and  O_11 
REMARK    4  A    between atoms: O_11  and  C_12 
REMARK    5  A    between atoms: C_12  and  C_13 
REMARK    6  A    between atoms: C_17  and  O_18 
REMARK    7  A    between atoms: O_18  and  C_19 
ROOT
HETATM    1  C   LIG     1      -0.515  -0.768   1.283  1.00  0.00     0.010 A 
HETATM    2  C   LIG     1      -0.898  -2.114   1.400  1.00  0.00    -0.002 A 
HETATM    3  C   LIG     1      -2.126  -2.542   0.888  1.00  0.00     0.002 A 
HETATM    4  C   LIG     1      -2.983  -1.631   0.266  1.00  0.00     0.025 A 
HETATM    5  C   LIG     1      -2.621  -0.276   0.161  1.00  0.00     0.100 A 
HETATM    6  C   LIG     1      -1.381   0.143   0.658  1.00  0.00     0.023 A 
ENDROOT
BRANCH   1   7
HETATM    7  C   LIG     1       0.811  -0.299   1.816  1.00  0.00     0.178 C 
BRANCH   7   8
HETATM    8  O   LIG     1       1.613   0.231   0.763  1.00  0.00    -0.297 OA
BRANCH   8   9
HETATM    9  C   LIG     1       2.203  -0.563  -0.228  1.00  0.00     0.272 C 
HETATM   10  O   LIG     1       2.006  -1.808  -0.252  1.00  0.00    -0.264 OA
BRANCH   9  11
HETATM   11  C   LIG     1       2.990   0.086  -1.331  1.00  0.00     0.091 A 
HETATM   12  C   LIG     1       4.097   1.082  -0.951  1.00  0.00     0.013 A 
HETATM   13  C   LIG     1       4.336   1.408   0.537  1.00  0.00     0.001 C 
HETATM   14  C   LIG     1       4.299   2.235  -1.939  1.00  0.00     0.001 C 
HETATM   15  C   LIG     1       4.475  -0.310  -1.484  1.00  0.00     0.034 A 
BRANCH  15  16
HETATM   16  C   LIG     1       5.098  -1.260  -0.486  1.00  0.00    -0.003 C 
HETATM   17  C   LIG     1       6.394  -1.189  -0.151  1.00  0.00     0.111 C 
HETATM   18 CL   LIG     1       7.472   0.029  -0.829  1.00  0.00    -0.070 Cl
HETATM   19 CL   LIG     1       7.060  -2.346   0.990  1.00  0.00    -0.070 Cl
ENDBRANCH  15  16
ENDBRANCH   9  11
ENDBRANCH   8   9
ENDBRANCH   7   8
ENDBRANCH   1   7
BRANCH   5  20
HETATM   20  O   LIG     1      -3.445   0.666  -0.472  1.00  0.00    -0.307 OA
BRANCH  20  21
HETATM   21  C   LIG     1      -4.847   0.631  -0.500  1.00  0.00     0.100 A 
HETATM   22  C   LIG     1      -5.601   0.096   0.563  1.00  0.00     0.025 A 
HETATM   23  C   LIG     1      -6.998   0.096   0.504  1.00  0.00     0.002 A 
HETATM   24  C   LIG     1      -7.652   0.638  -0.606  1.00  0.00     0.000 A 
HETATM   25  C   LIG     1      -6.910   1.188  -1.655  1.00  0.00     0.002 A 
HETATM   26  C   LIG     1      -5.513   1.190  -1.598  1.00  0.00     0.025 A 
ENDBRANCH  20  21
ENDBRANCH   5  20
TORSDOF 7
