REMARK  1 active torsions:
REMARK  status: ('A' for Active; 'I' for Inactive)
REMARK    1  A    between atoms: C_3  and  C_10 
ROOT
HETATM    1 CL   LIG     1      -0.790   2.622  -0.633  1.00  0.00    -0.082 Cl
HETATM    2  C   LIG     1      -1.522   1.066  -0.227  1.00  0.00     0.069 A 
HETATM    3  C   LIG     1      -0.708  -0.056   0.033  1.00  0.00     0.012 A 
HETATM    4  C   LIG     1      -1.303  -1.291   0.329  1.00  0.00     0.002 A 
HETATM    5  C   LIG     1      -2.691  -1.415   0.365  1.00  0.00     0.012 A 
HETATM    6  C   LIG     1      -3.505  -0.308   0.110  1.00  0.00     0.069 A 
HETATM    7 CL   LIG     1      -5.252  -0.514   0.168  1.00  0.00    -0.082 Cl
HETATM    8  C   LIG     1      -2.925   0.938  -0.189  1.00  0.00     0.079 A 
HETATM    9 CL   LIG     1      -3.955   2.332  -0.517  1.00  0.00    -0.081 Cl
ENDROOT
BRANCH   3  10
HETATM   10  C   LIG     1       0.767   0.044   0.017  1.00  0.00     0.012 A 
HETATM   11  C   LIG     1       1.415   0.746   1.045  1.00  0.00     0.001 A 
HETATM   12  C   LIG     1       2.807   0.845   1.063  1.00  0.00     0.001 A 
HETATM   13  C   LIG     1       3.565   0.244   0.057  1.00  0.00     0.012 A 
HETATM   14  C   LIG     1       2.936  -0.459  -0.975  1.00  0.00     0.068 A 
HETATM   15  C   LIG     1       1.532  -0.565  -1.002  1.00  0.00     0.068 A 
HETATM   16 CL   LIG     1       3.932  -1.195  -2.224  1.00  0.00    -0.082 Cl
HETATM   17 CL   LIG     1       0.740  -1.427  -2.324  1.00  0.00    -0.082 Cl
ENDBRANCH   3  10
TORSDOF 1
