REMARK  1 active torsions:
REMARK  status: ('A' for Active; 'I' for Inactive)
REMARK    1  A    between atoms: C_9  and  C_10 
ROOT
HETATM    1  C   LIG     1       0.752  -0.016   0.013  1.00  0.00     0.023 A 
HETATM    2  C   LIG     1       1.453   0.164  -1.198  1.00  0.00     0.070 A 
HETATM    3 CL   LIG     1       0.567   0.336  -2.717  1.00  0.00    -0.081 Cl
HETATM    4  C   LIG     1       2.860   0.207  -1.196  1.00  0.00     0.079 A 
HETATM    5 CL   LIG     1       3.745   0.434  -2.705  1.00  0.00    -0.081 Cl
HETATM    6  C   LIG     1       3.561   0.069   0.014  1.00  0.00     0.070 A 
HETATM    7 CL   LIG     1       5.319   0.117   0.063  1.00  0.00    -0.081 Cl
HETATM    8  C   LIG     1       2.863  -0.111   1.210  1.00  0.00     0.024 A 
HETATM    9  C   LIG     1       1.467  -0.154   1.218  1.00  0.00     0.059 A 
HETATM   10 CL   LIG     1       0.639  -0.377   2.756  1.00  0.00    -0.082 Cl
ENDROOT
BRANCH   1  11
HETATM   11  C   LIG     1      -0.725  -0.059   0.021  1.00  0.00     0.013 A 
HETATM   12  C   LIG     1      -1.488   1.121   0.135  1.00  0.00     0.069 A 
HETATM   13 CL   LIG     1      -0.682   2.686   0.275  1.00  0.00    -0.082 Cl
HETATM   14  C   LIG     1      -2.895   1.046   0.139  1.00  0.00     0.079 A 
HETATM   15 CL   LIG     1      -3.862   2.514   0.280  1.00  0.00    -0.081 Cl
HETATM   16  C   LIG     1      -3.528  -0.205   0.029  1.00  0.00     0.069 A 
HETATM   17  C   LIG     1      -2.763  -1.369  -0.082  1.00  0.00     0.012 A 
HETATM   18 CL   LIG     1      -5.282  -0.346   0.030  1.00  0.00    -0.082 Cl
HETATM   19  C   LIG     1      -1.370  -1.298  -0.086  1.00  0.00     0.002 A 
ENDBRANCH   1  11
TORSDOF 1
