REMARK  1 active torsions:
REMARK  status: ('A' for Active; 'I' for Inactive)
REMARK    1  A    between atoms: C_3  and  C_4 
ROOT
HETATM    1 CL   LIG     1      -0.632   1.734   2.174  1.00  0.00    -0.082 Cl
HETATM    2  C   LIG     1      -1.463   0.786   0.943  1.00  0.00     0.059 A 
HETATM    3  C   LIG     1      -0.750   0.015   0.006  1.00  0.00     0.023 A 
HETATM    4  C   LIG     1      -1.454  -0.734  -0.962  1.00  0.00     0.070 A 
HETATM    5 CL   LIG     1      -0.572  -1.699  -2.150  1.00  0.00    -0.081 Cl
HETATM    6  C   LIG     1      -2.861  -0.708  -0.982  1.00  0.00     0.079 A 
HETATM    7 CL   LIG     1      -3.750  -1.641  -2.187  1.00  0.00    -0.081 Cl
HETATM    8  C   LIG     1      -3.560   0.066  -0.040  1.00  0.00     0.070 A 
HETATM    9 CL   LIG     1      -5.318   0.126  -0.029  1.00  0.00    -0.081 Cl
HETATM   10  C   LIG     1      -2.859   0.806   0.914  1.00  0.00     0.024 A 
ENDROOT
BRANCH   3  11
HETATM   11  C   LIG     1       0.727  -0.009   0.038  1.00  0.00     0.013 A 
HETATM   12  C   LIG     1       1.443   0.996  -0.628  1.00  0.00     0.013 A 
HETATM   13  C   LIG     1       2.842   0.997  -0.615  1.00  0.00     0.068 A 
HETATM   14  C   LIG     1       3.535  -0.014   0.071  1.00  0.00     0.069 A 
HETATM   15 CL   LIG     1       3.700   2.276  -1.464  1.00  0.00    -0.082 Cl
HETATM   16  C   LIG     1       2.822  -1.016   0.738  1.00  0.00     0.024 A 
HETATM   17 CL   LIG     1       5.292  -0.048   0.113  1.00  0.00    -0.082 Cl
HETATM   18  C   LIG     1       1.423  -1.020   0.726  1.00  0.00     0.059 A 
HETATM   19 CL   LIG     1       0.569  -2.297   1.585  1.00  0.00    -0.082 Cl
ENDBRANCH   3  11
TORSDOF 1
