REMARK  1 active torsions:
REMARK  status: ('A' for Active; 'I' for Inactive)
REMARK    1  A    between atoms: C_11  and  C_12 
ROOT
HETATM    1 CL   LIG     1       0.537   1.397  -2.371  1.00  0.00    -0.081 Cl
HETATM    2  C   LIG     1       1.418   0.631  -1.044  1.00  0.00     0.070 A 
HETATM    3  C   LIG     1       2.824   0.645  -1.035  1.00  0.00     0.080 A 
HETATM    4 CL   LIG     1       3.706   1.427  -2.349  1.00  0.00    -0.081 Cl
HETATM    5  C   LIG     1       3.526   0.037   0.019  1.00  0.00     0.081 A 
HETATM    6 CL   LIG     1       5.292   0.056   0.029  1.00  0.00    -0.081 Cl
HETATM    7  C   LIG     1       2.825  -0.586   1.066  1.00  0.00     0.080 A 
HETATM    8 CL   LIG     1       3.709  -1.349   2.390  1.00  0.00    -0.081 Cl
HETATM    9  C   LIG     1       1.420  -0.601   1.060  1.00  0.00     0.070 A 
HETATM   10 CL   LIG     1       0.540  -1.385   2.377  1.00  0.00    -0.081 Cl
HETATM   11  C   LIG     1       0.714   0.007   0.004  1.00  0.00     0.025 A 
ENDROOT
BRANCH  11  12
HETATM   12  C   LIG     1      -0.768  -0.008  -0.004  1.00  0.00     0.025 A 
HETATM   13  C   LIG     1      -1.460  -1.069  -0.625  1.00  0.00     0.069 A 
HETATM   14  C   LIG     1      -2.865  -1.077  -0.629  1.00  0.00     0.069 A 
HETATM   15 CL   LIG     1      -0.570  -2.385  -1.397  1.00  0.00    -0.082 Cl
HETATM   16  C   LIG     1      -3.571  -0.037  -0.020  1.00  0.00     0.025 A 
HETATM   17 CL   LIG     1      -3.770  -2.379  -1.391  1.00  0.00    -0.082 Cl
HETATM   18  C   LIG     1      -2.894   1.016   0.597  1.00  0.00     0.069 A 
HETATM   19  C   LIG     1      -1.489   1.038   0.609  1.00  0.00     0.069 A 
HETATM   20 CL   LIG     1      -3.834   2.299   1.349  1.00  0.00    -0.082 Cl
HETATM   21 CL   LIG     1      -0.636   2.372   1.390  1.00  0.00    -0.082 Cl
ENDBRANCH  11  12
TORSDOF 1
