REMARK  1 active torsions:
REMARK  status: ('A' for Active; 'I' for Inactive)
REMARK    1  A    between atoms: C_6  and  C_11 
ROOT
HETATM    1 CL   LIG     1       0.867   0.783  -2.562  1.00  0.00    -0.082 Cl
HETATM    2  C   LIG     1       1.556   0.154  -1.063  1.00  0.00     0.069 A 
HETATM    3  C   LIG     1       2.935  -0.102  -0.980  1.00  0.00     0.069 A 
HETATM    4 CL   LIG     1       4.004   0.193  -2.346  1.00  0.00    -0.082 Cl
HETATM    5  C   LIG     1       3.483  -0.602   0.204  1.00  0.00     0.025 A 
HETATM    6  C   LIG     1       0.729  -0.096   0.052  1.00  0.00     0.024 A 
HETATM    7  C   LIG     1       1.291  -0.600   1.244  1.00  0.00     0.069 A 
HETATM    8 CL   LIG     1       0.268  -0.919   2.648  1.00  0.00    -0.082 Cl
HETATM    9  C   LIG     1       2.672  -0.851   1.313  1.00  0.00     0.069 A 
HETATM   10 CL   LIG     1       3.415  -1.480   2.778  1.00  0.00    -0.082 Cl
ENDROOT
BRANCH   6  11
HETATM   11  C   LIG     1      -0.723   0.167  -0.028  1.00  0.00     0.013 A 
HETATM   12  C   LIG     1      -1.207   1.434   0.330  1.00  0.00     0.001 A 
HETATM   13  C   LIG     1      -2.574   1.709   0.263  1.00  0.00     0.001 A 
HETATM   14  C   LIG     1      -3.466   0.724  -0.162  1.00  0.00     0.012 A 
HETATM   15  C   LIG     1      -2.998  -0.544  -0.522  1.00  0.00     0.068 A 
HETATM   16  C   LIG     1      -1.622  -0.831  -0.458  1.00  0.00     0.068 A 
HETATM   17 CL   LIG     1      -4.160  -1.755  -1.051  1.00  0.00    -0.082 Cl
HETATM   18 CL   LIG     1      -1.027  -2.429  -0.912  1.00  0.00    -0.082 Cl
ENDBRANCH   6  11
TORSDOF 1
