REMARK  1 active torsions:
REMARK  status: ('A' for Active; 'I' for Inactive)
REMARK    1  A    between atoms: C_3  and  C_4 
ROOT
HETATM    1 CL   LIG     1       0.261   1.972   1.975  1.00  0.00    -0.081 Cl
HETATM    2  C   LIG     1       1.286   0.993   0.918  1.00  0.00     0.070 A 
HETATM    3  C   LIG     1       0.705   0.067   0.031  1.00  0.00     0.024 A 
HETATM    4  C   LIG     1       1.525  -0.710  -0.809  1.00  0.00     0.070 A 
HETATM    5 CL   LIG     1       0.800  -1.874  -1.925  1.00  0.00    -0.081 Cl
HETATM    6  C   LIG     1       2.922  -0.563  -0.760  1.00  0.00     0.080 A 
HETATM    7 CL   LIG     1       3.949  -1.539  -1.812  1.00  0.00    -0.081 Cl
HETATM    8  C   LIG     1       3.501   0.361   0.127  1.00  0.00     0.081 A 
HETATM    9 CL   LIG     1       5.256   0.544   0.189  1.00  0.00    -0.081 Cl
HETATM   10  C   LIG     1       2.683   1.139   0.966  1.00  0.00     0.080 A 
HETATM   11 CL   LIG     1       3.412   2.299   2.079  1.00  0.00    -0.081 Cl
ENDROOT
BRANCH   3  12
HETATM   12  C   LIG     1      -0.764  -0.089  -0.018  1.00  0.00     0.013 A 
HETATM   13  C   LIG     1      -1.510   0.704  -0.903  1.00  0.00     0.012 A 
HETATM   14  C   LIG     1      -2.901   0.573  -0.965  1.00  0.00     0.058 A 
HETATM   15  C   LIG     1      -3.553  -0.351  -0.144  1.00  0.00     0.012 A 
HETATM   16 CL   LIG     1      -3.827   1.568  -2.074  1.00  0.00    -0.082 Cl
HETATM   17  C   LIG     1      -2.817  -1.145   0.740  1.00  0.00     0.012 A 
HETATM   18  C   LIG     1      -1.424  -1.019   0.809  1.00  0.00     0.058 A 
HETATM   19 CL   LIG     1      -0.533  -2.037   1.935  1.00  0.00    -0.082 Cl
ENDBRANCH   3  12
TORSDOF 1
