REMARK  1 active torsions:
REMARK  status: ('A' for Active; 'I' for Inactive)
REMARK    1  A    between atoms: C_7  and  C_8 
ROOT
HETATM    1  C   LIG     1       0.688  -0.079   0.069  1.00  0.00     0.013 A 
HETATM    2  C   LIG     1       1.290   0.306   1.273  1.00  0.00     0.013 A 
HETATM    3  C   LIG     1       2.670   0.188   1.448  1.00  0.00     0.069 A 
HETATM    4 CL   LIG     1       3.370   0.678   2.986  1.00  0.00    -0.082 Cl
HETATM    5  C   LIG     1       3.470  -0.316   0.408  1.00  0.00     0.080 A 
HETATM    6 CL   LIG     1       5.213  -0.466   0.633  1.00  0.00    -0.081 Cl
HETATM    7  C   LIG     1       2.876  -0.694  -0.811  1.00  0.00     0.080 A 
HETATM    8 CL   LIG     1       3.878  -1.317  -2.123  1.00  0.00    -0.081 Cl
HETATM    9  C   LIG     1       1.484  -0.573  -0.984  1.00  0.00     0.069 A 
HETATM   10 CL   LIG     1       0.743  -1.012  -2.526  1.00  0.00    -0.082 Cl
ENDROOT
BRANCH   1  11
HETATM   11  C   LIG     1      -0.776   0.057  -0.073  1.00  0.00     0.012 A 
HETATM   12  C   LIG     1      -1.623  -1.070  -0.026  1.00  0.00     0.058 A 
HETATM   13  C   LIG     1      -3.006  -0.906  -0.165  1.00  0.00     0.012 A 
HETATM   14 CL   LIG     1      -0.984  -2.690   0.233  1.00  0.00    -0.082 Cl
HETATM   15  C   LIG     1      -3.551   0.368  -0.344  1.00  0.00     0.012 A 
HETATM   16  C   LIG     1      -2.716   1.488  -0.382  1.00  0.00     0.058 A 
HETATM   17 CL   LIG     1      -3.402   3.087  -0.601  1.00  0.00    -0.082 Cl
HETATM   18  C   LIG     1      -1.333   1.334  -0.243  1.00  0.00     0.012 A 
ENDBRANCH   1  11
TORSDOF 1
