REMARK  0 active torsions:
REMARK  status: ('A' for Active; 'I' for Inactive)
ROOT
HETATM    1  O   LIG     1       0.120  -2.514   0.971  1.00  0.00    -0.190 OA
HETATM    2  C   LIG     1       0.047  -1.208   0.468  1.00  0.00     0.131 A 
HETATM    3  C   LIG     1       1.247  -0.588   0.056  1.00  0.00     0.025 A 
HETATM    4  C   LIG     1       1.226   0.731  -0.459  1.00  0.00     0.002 A 
HETATM    5  C   LIG     1       2.422   1.343  -0.868  1.00  0.00     0.000 A 
HETATM    6  C   LIG     1       3.634   0.658  -0.768  1.00  0.00     0.000 A 
HETATM    7  C   LIG     1       3.663  -0.642  -0.262  1.00  0.00     0.000 A 
HETATM    8  C   LIG     1       2.481  -1.264   0.148  1.00  0.00     0.002 A 
HETATM    9  C   LIG     1       0.016   1.422  -0.561  1.00  0.00     0.000 A 
HETATM   10  C   LIG     1      -1.182   0.822  -0.157  1.00  0.00     0.002 A 
HETATM   11  C   LIG     1      -2.385   1.538  -0.270  1.00  0.00     0.000 A 
HETATM   12  C   LIG     1      -3.589   0.959   0.126  1.00  0.00     0.000 A 
HETATM   13  C   LIG     1      -3.606  -0.336   0.638  1.00  0.00     0.000 A 
HETATM   14  C   LIG     1      -2.419  -1.064   0.757  1.00  0.00     0.002 A 
HETATM   15  C   LIG     1      -1.183  -0.501   0.363  1.00  0.00     0.025 A 
ENDROOT
TORSDOF 0
