REMARK  2 active torsions:
REMARK  status: ('A' for Active; 'I' for Inactive)
REMARK    1  A    between atoms: C_19  and  C_21 
REMARK    2  A    between atoms: C_21  and  C_22 
ROOT
HETATM    1  O   LIG     1      -6.215  -0.491  -1.130  1.00  0.00    -0.291 OA
HETATM    2  C   LIG     1      -5.056  -0.523  -0.638  1.00  0.00     0.172 C 
HETATM    3  C   LIG     1      -4.346  -1.837  -0.509  1.00  0.00     0.070 C 
HETATM    4  C   LIG     1      -2.832  -1.648  -0.330  1.00  0.00     0.012 C 
HETATM    5  C   LIG     1      -2.482  -0.568   0.744  1.00  0.00     0.022 C 
HETATM    6  C   LIG     1      -2.946  -1.045   2.144  1.00  0.00     0.004 C 
HETATM    7  C   LIG     1      -3.230   0.739   0.418  1.00  0.00    -0.042 C 
HETATM    8  C   LIG     1      -2.542   2.068   0.696  1.00  0.00     0.022 C 
HETATM    9  C   LIG     1      -1.154   2.164   0.009  1.00  0.00     0.005 C 
HETATM   10  C   LIG     1      -0.584   0.772  -0.357  1.00  0.00     0.008 C 
HETATM   11  C   LIG     1      -0.936  -0.247   0.775  1.00  0.00     0.061 C 
HETATM   12  C   LIG     1       0.053  -1.409   0.866  1.00  0.00     0.151 C 
HETATM   13  C   LIG     1       1.550  -1.190   0.700  1.00  0.00     0.067 C 
HETATM   14  C   LIG     1       1.918   0.263   0.262  1.00  0.00     0.039 C 
HETATM   15  C   LIG     1       1.940   1.210   1.508  1.00  0.00     0.003 C 
HETATM   16  C   LIG     1       0.907   0.722  -0.798  1.00  0.00     0.004 C 
HETATM   17  C   LIG     1       1.538   1.935  -1.472  1.00  0.00     0.003 C 
HETATM   18  C   LIG     1       3.056   1.690  -1.389  1.00  0.00     0.038 C 
HETATM   19  C   LIG     1       3.285   0.424  -0.512  1.00  0.00     0.180 C 
HETATM   20  O   LIG     1       4.358   0.679   0.369  1.00  0.00    -0.218 OA
HETATM   21  O   LIG     1      -0.333  -2.533   1.146  1.00  0.00    -0.296 OA
HETATM   22  C   LIG     1      -4.432   0.728  -0.181  1.00  0.00     0.029 C 
ENDROOT
BRANCH  19  23
HETATM   23  C   LIG     1       3.646  -0.762  -1.423  1.00  0.00     0.211 C 
HETATM   24  O   LIG     1       2.960  -1.007  -2.407  1.00  0.00    -0.291 OA
BRANCH  23  25
HETATM   25  C   LIG     1       4.847  -1.635  -1.139  1.00  0.00     0.249 C 
HETATM   26  O   LIG     1       5.003  -2.624  -2.122  1.00  0.00    -0.212 OA
ENDBRANCH  23  25
ENDBRANCH  19  23
TORSDOF 2
