REMARK  3 active torsions:
REMARK  status: ('A' for Active; 'I' for Inactive)
REMARK    1  A    between atoms: C_2  and  C_4 
REMARK    2  A    between atoms: C_4  and  C_5 
REMARK    3  A    between atoms: C_4  and  C_12 
ROOT
HETATM    1  C   LIG     1      -0.039  -1.111  -0.490  1.00  0.00     0.076 C 
ENDROOT
BRANCH   1   2
HETATM    2  C   LIG     1       0.234  -1.567  -1.949  1.00  0.00     0.167 C 
HETATM    3 CL   LIG     1      -1.177  -2.397  -2.666  1.00  0.00    -0.097 Cl
HETATM    4 CL   LIG     1       0.806  -0.271  -3.044  1.00  0.00    -0.097 Cl
ENDBRANCH   1   2
BRANCH   1   5
HETATM    5  C   LIG     1       1.187  -0.434   0.100  1.00  0.00    -0.016 A 
HETATM    6  C   LIG     1       2.134  -1.197   0.808  1.00  0.00    -0.003 A 
HETATM    7  C   LIG     1       3.270  -0.590   1.353  1.00  0.00     0.011 A 
HETATM    8  C   LIG     1       3.476   0.783   1.193  1.00  0.00     0.058 A 
HETATM    9  C   LIG     1       2.547   1.550   0.485  1.00  0.00     0.011 A 
HETATM   10 CL   LIG     1       4.902   1.542   1.877  1.00  0.00    -0.082 Cl
HETATM   11  C   LIG     1       1.410   0.948  -0.060  1.00  0.00    -0.003 A 
ENDBRANCH   1   5
BRANCH   1  12
HETATM   12  C   LIG     1      -1.310  -0.293  -0.225  1.00  0.00    -0.005 A 
HETATM   13  C   LIG     1      -1.960   0.442  -1.241  1.00  0.00    -0.003 A 
HETATM   14  C   LIG     1      -3.102   1.198  -0.962  1.00  0.00    -0.000 A 
HETATM   15  C   LIG     1      -3.614   1.242   0.332  1.00  0.00     0.001 A 
HETATM   16  C   LIG     1      -2.986   0.533   1.354  1.00  0.00     0.011 A 
HETATM   17  C   LIG     1      -1.842  -0.229   1.089  1.00  0.00     0.054 A 
HETATM   18 CL   LIG     1      -1.104  -1.084   2.442  1.00  0.00    -0.083 Cl
ENDBRANCH   1  12
TORSDOF 3
