REMARK  0 active torsions:
REMARK  status: ('A' for Active; 'I' for Inactive)
ROOT
HETATM    1  C   LIG     1      -3.713   1.446  -0.176  1.00  0.00     0.007 C 
HETATM    2  C   LIG     1      -2.513   0.632   0.359  1.00  0.00     0.052 C 
HETATM    3  C   LIG     1      -1.597   1.590   1.171  1.00  0.00     0.007 C 
HETATM    4  C   LIG     1      -0.193   1.045   1.419  1.00  0.00     0.005 C 
HETATM    5  C   LIG     1       0.467   0.720   0.068  1.00  0.00     0.022 C 
HETATM    6  C   LIG     1       1.968   0.443   0.179  1.00  0.00    -0.026 A 
HETATM    7  C   LIG     1       2.573  -0.623  -0.540  1.00  0.00    -0.024 A 
HETATM    8  C   LIG     1       1.772  -1.541  -1.431  1.00  0.00     0.026 C 
HETATM    9  C   LIG     1       0.421  -0.937  -1.815  1.00  0.00     0.005 C 
HETATM   10  C   LIG     1      -0.307  -0.470  -0.543  1.00  0.00     0.005 C 
HETATM   11  C   LIG     1      -1.808  -0.127  -0.813  1.00  0.00     0.007 C 
HETATM   12  C   LIG     1      -2.623  -1.438  -0.941  1.00  0.00     0.008 C 
HETATM   13  C   LIG     1      -3.098  -1.789   0.468  1.00  0.00     0.065 C 
HETATM   14  C   LIG     1      -3.050  -0.493   1.189  1.00  0.00     0.150 C 
HETATM   15  O   LIG     1      -3.461  -0.358   2.332  1.00  0.00    -0.296 OA
HETATM   16  C   LIG     1       3.955  -0.848  -0.425  1.00  0.00     0.023 A 
HETATM   17  C   LIG     1       4.755   0.011   0.329  1.00  0.00     0.131 A 
HETATM   18  O   LIG     1       6.124  -0.231   0.424  1.00  0.00    -0.190 OA
HETATM   19  C   LIG     1       4.180   1.112   0.967  1.00  0.00     0.027 A 
HETATM   20  C   LIG     1       2.805   1.338   0.877  1.00  0.00    -0.003 A 
ENDROOT
TORSDOF 0
