REMARK  0 active torsions:
REMARK  status: ('A' for Active; 'I' for Inactive)
ROOT
HETATM    1  O   LIG     1       5.007   0.939  -0.608  1.00  0.00    -0.224 OA
HETATM    2  C   LIG     1       4.308  -0.279  -0.613  1.00  0.00     0.152 C 
HETATM    3  C   LIG     1       3.393  -0.373  -1.868  1.00  0.00     0.033 C 
HETATM    4  C   LIG     1       2.033   0.381  -1.787  1.00  0.00     0.003 C 
HETATM    5  C   LIG     1       1.485   0.595  -0.342  1.00  0.00     0.000 C 
HETATM    6  C   LIG     1       1.973   1.984   0.175  1.00  0.00     0.000 C 
HETATM    7  C   LIG     1       2.041  -0.580   0.544  1.00  0.00     0.003 C 
HETATM    8  C   LIG     1       1.228  -0.781   1.845  1.00  0.00     0.000 C 
HETATM    9  C   LIG     1      -0.248  -1.178   1.538  1.00  0.00     0.000 C 
HETATM   10  C   LIG     1      -0.668  -0.800   0.094  1.00  0.00     0.000 C 
HETATM   11  C   LIG     1      -0.096   0.604  -0.260  1.00  0.00     0.000 C 
HETATM   12  C   LIG     1      -0.871   1.271  -1.434  1.00  0.00     0.000 C 
HETATM   13  C   LIG     1      -2.391   1.467  -1.114  1.00  0.00     0.007 C 
HETATM   14  C   LIG     1      -2.957   0.433  -0.088  1.00  0.00     0.051 C 
HETATM   15  C   LIG     1      -3.011   1.015   1.352  1.00  0.00     0.007 C 
HETATM   16  C   LIG     1      -2.178  -0.883  -0.231  1.00  0.00     0.007 C 
HETATM   17  C   LIG     1      -3.063  -1.980   0.358  1.00  0.00     0.008 C 
HETATM   18  C   LIG     1      -4.477  -1.547  -0.069  1.00  0.00     0.065 C 
HETATM   19  C   LIG     1      -4.335  -0.083  -0.371  1.00  0.00     0.150 C 
HETATM   20  O   LIG     1      -5.262   0.619  -0.746  1.00  0.00    -0.296 OA
HETATM   21  C   LIG     1       3.561  -0.471   0.741  1.00  0.00     0.033 C 
ENDROOT
TORSDOF 0
