REMARK  0 active torsions:
REMARK  status: ('A' for Active; 'I' for Inactive)
ROOT
HETATM    1  C   LIG     1       1.824  -1.740   1.449  1.00  0.00     0.004 C 
HETATM    2  C   LIG     1       1.472  -0.879   0.197  1.00  0.00     0.015 C 
HETATM    3  C   LIG     1       1.858   0.576   0.450  1.00  0.00    -0.046 C 
HETATM    4  C   LIG     1       1.268   1.554  -0.258  1.00  0.00    -0.035 C 
HETATM    5  C   LIG     1       0.361   1.215  -1.398  1.00  0.00     0.025 C 
HETATM    6  C   LIG     1       2.377  -1.390  -0.984  1.00  0.00     0.006 C 
HETATM    7  C   LIG     1       3.680  -0.568  -1.212  1.00  0.00     0.034 C 
HETATM    8  C   LIG     1       4.290   0.030   0.088  1.00  0.00     0.156 C 
HETATM    9  O   LIG     1       5.404   0.829  -0.221  1.00  0.00    -0.223 OA
HETATM   10  C   LIG     1       3.265   0.829   0.949  1.00  0.00     0.055 C 
HETATM   11  C   LIG     1      -0.084  -1.015  -0.161  1.00  0.00     0.004 C 
HETATM   12  C   LIG     1      -0.713   0.191  -0.981  1.00  0.00     0.005 C 
HETATM   13  C   LIG     1      -1.916   0.936  -0.290  1.00  0.00     0.007 C 
HETATM   14  C   LIG     1      -2.739   1.762  -1.318  1.00  0.00     0.008 C 
HETATM   15  C   LIG     1      -3.975   0.949  -1.677  1.00  0.00     0.065 C 
HETATM   16  C   LIG     1      -4.109  -0.008  -0.560  1.00  0.00     0.150 C 
HETATM   17  O   LIG     1      -5.076  -0.746  -0.440  1.00  0.00    -0.296 OA
HETATM   18  C   LIG     1      -2.966   0.013   0.403  1.00  0.00     0.052 C 
HETATM   19  C   LIG     1      -3.455   0.646   1.725  1.00  0.00     0.007 C 
HETATM   20  C   LIG     1      -2.445  -1.416   0.648  1.00  0.00     0.007 C 
HETATM   21  C   LIG     1      -0.977  -1.386   1.051  1.00  0.00     0.001 C 
ENDROOT
TORSDOF 0
