REMARK  0 active torsions:
REMARK  status: ('A' for Active; 'I' for Inactive)
ROOT
HETATM    1  C   LIG     1       1.432  -0.042  -0.006  1.00  0.00     0.000 A 
HETATM    2  C   LIG     1       2.864  -0.038  -0.015  1.00  0.00     0.000 A 
HETATM    3  C   LIG     1       3.645  -1.221   0.023  1.00  0.00     0.000 A 
HETATM    4  C   LIG     1       5.040  -1.161   0.013  1.00  0.00     0.000 A 
HETATM    5  C   LIG     1       5.693   0.067  -0.034  1.00  0.00     0.000 A 
HETATM    6  C   LIG     1       4.955   1.247  -0.072  1.00  0.00     0.000 A 
HETATM    7  C   LIG     1       3.551   1.209  -0.062  1.00  0.00     0.000 A 
HETATM    8  C   LIG     1       2.835   2.408  -0.101  1.00  0.00     0.000 A 
HETATM    9  C   LIG     1       1.446   2.401  -0.093  1.00  0.00     0.000 A 
HETATM   10  C   LIG     1       0.737   1.194  -0.046  1.00  0.00     0.000 A 
HETATM   11  C   LIG     1      -0.667   1.227  -0.040  1.00  0.00     0.000 A 
HETATM   12  C   LIG     1      -1.432   0.042   0.006  1.00  0.00     0.000 A 
HETATM   13  C   LIG     1      -0.737  -1.194   0.046  1.00  0.00     0.000 A 
HETATM   14  C   LIG     1      -1.446  -2.401   0.093  1.00  0.00     0.000 A 
HETATM   15  C   LIG     1      -2.835  -2.408   0.101  1.00  0.00     0.000 A 
HETATM   16  C   LIG     1      -3.551  -1.209   0.062  1.00  0.00     0.000 A 
HETATM   17  C   LIG     1      -2.864   0.038   0.015  1.00  0.00     0.000 A 
HETATM   18  C   LIG     1      -3.645   1.221  -0.023  1.00  0.00     0.000 A 
HETATM   19  C   LIG     1      -5.040   1.161  -0.013  1.00  0.00     0.000 A 
HETATM   20  C   LIG     1      -5.693  -0.067   0.034  1.00  0.00     0.000 A 
HETATM   21  C   LIG     1      -4.955  -1.247   0.072  1.00  0.00     0.000 A 
HETATM   22  C   LIG     1       0.667  -1.227   0.040  1.00  0.00     0.000 A 
ENDROOT
TORSDOF 0
