REMARK  4 active torsions:
REMARK  status: ('A' for Active; 'I' for Inactive)
REMARK    1  A    between atoms: C_7  and  C_8 
REMARK       I    between atoms: C_8  and  N_9 
REMARK    2  A    between atoms: C_12  and  C_13 
REMARK    3  A    between atoms: C_13  and  C_14 
REMARK    4  A    between atoms: C_19  and  O_20 
ROOT
HETATM    1  C   LIG     1       1.682  -0.337  -1.708  1.00  0.00     0.264 C 
HETATM    2  N   LIG     1       0.354  -0.539  -1.198  1.00  0.00    -0.279 N 
HETATM    3  C   LIG     1      -0.402  -1.661  -1.328  1.00  0.00     0.041 A 
HETATM    4  C   LIG     1       0.049  -2.910  -2.028  1.00  0.00     0.050 C 
HETATM    5  C   LIG     1      -1.661  -1.465  -0.753  1.00  0.00     0.002 A 
HETATM    6  C   LIG     1      -1.637  -0.182  -0.236  1.00  0.00     0.016 A 
HETATM    7  C   LIG     1      -2.610   0.542   0.454  1.00  0.00     0.025 A 
HETATM    8  C   LIG     1      -2.317   1.863   0.838  1.00  0.00     0.094 A 
HETATM    9  C   LIG     1      -1.052   2.425   0.511  1.00  0.00     0.026 A 
HETATM   10  C   LIG     1      -0.091   1.670  -0.184  1.00  0.00     0.020 A 
HETATM   11  C   LIG     1      -0.410   0.355  -0.533  1.00  0.00     0.066 A 
HETATM   12  O   LIG     1       1.912  -0.562  -2.927  1.00  0.00    -0.267 OA
ENDROOT
BRANCH   1  13
HETATM   13  C   LIG     1       2.785   0.109  -0.824  1.00  0.00     0.057 A 
HETATM   14  C   LIG     1       2.696  -0.052   0.572  1.00  0.00     0.006 A 
HETATM   15  C   LIG     1       3.740   0.369   1.401  1.00  0.00     0.012 A 
HETATM   16  C   LIG     1       4.886   0.948   0.847  1.00  0.00     0.058 A 
HETATM   17 CL   LIG     1       6.194   1.476   1.890  1.00  0.00    -0.082 Cl
HETATM   18  C   LIG     1       4.989   1.103  -0.538  1.00  0.00     0.012 A 
HETATM   19  C   LIG     1       3.946   0.683  -1.371  1.00  0.00     0.006 A 
ENDBRANCH   1  13
BRANCH   5  20
HETATM   20  C   LIG     1      -2.782  -2.459  -0.652  1.00  0.00     0.125 C 
BRANCH  20  21
HETATM   21  C   LIG     1      -2.625  -3.288   0.583  1.00  0.00     0.190 C 
HETATM   22  O   LIG     1      -2.688  -2.687   1.836  1.00  0.00    -0.647 OA
HETATM   23  O   LIG     1      -2.440  -4.532   0.490  1.00  0.00    -0.647 OA
ENDBRANCH  20  21
ENDBRANCH   5  20
BRANCH   8  24
HETATM   24  O   LIG     1      -3.298   2.584   1.534  1.00  0.00    -0.328 OA
HETATM   25  C   LIG     1      -3.141   3.925   1.985  1.00  0.00     0.181 C 
ENDBRANCH   8  24
TORSDOF 4
