REMARK  4 active torsions:
REMARK  status: ('A' for Active; 'I' for Inactive)
REMARK    1  A    between atoms: C_2  and  C_4 
REMARK    2  A    between atoms: C_5  and  N_10 
REMARK    3  A    between atoms: N_10  and  C_11 
REMARK    4  A    between atoms: C_13  and  C_14 
ROOT
HETATM    1  C   LIG     1       0.865   0.341   0.224  1.00  0.00     0.081 A 
HETATM    2  C   LIG     1       1.696   0.832   1.243  1.00  0.00     0.023 A 
HETATM    3  C   LIG     1       3.089   0.910   1.062  1.00  0.00     0.073 A 
HETATM    4  C   LIG     1       3.647   0.456  -0.145  1.00  0.00     0.004 A 
HETATM    5  C   LIG     1       2.823  -0.016  -1.169  1.00  0.00     0.002 A 
HETATM    6  C   LIG     1       1.439  -0.066  -0.993  1.00  0.00     0.019 A 
ENDROOT
BRANCH   1   7
HETATM    7  N   LIG     1      -0.559   0.304   0.430  1.00  0.00    -0.245 NA
BRANCH   7   8
HETATM    8  C   LIG     1      -1.450  -0.558  -0.298  1.00  0.00     0.087 A 
HETATM    9  C   LIG     1      -2.688  -0.079  -0.799  1.00  0.00     0.082 A 
HETATM   10  C   LIG     1      -3.570  -0.986  -1.416  1.00  0.00     0.008 A 
HETATM   11  C   LIG     1      -3.232  -2.334  -1.547  1.00  0.00     0.000 A 
HETATM   12  C   LIG     1      -2.013  -2.800  -1.059  1.00  0.00     0.002 A 
HETATM   13  C   LIG     1      -1.130  -1.921  -0.432  1.00  0.00     0.019 A 
BRANCH   9  14
HETATM   14  C   LIG     1      -3.073   1.353  -0.731  1.00  0.00     0.212 C 
HETATM   15  O   LIG     1      -2.204   2.250  -0.562  1.00  0.00    -0.644 OA
HETATM   16  O   LIG     1      -4.406   1.723  -0.889  1.00  0.00    -0.644 OA
ENDBRANCH   9  14
ENDBRANCH   7   8
ENDBRANCH   1   7
BRANCH   3  17
HETATM   17  C   LIG     1       3.978   1.383   2.185  1.00  0.00     0.419 C 
HETATM   18  F   LIG     1       5.140   1.946   1.686  1.00  0.00    -0.166 F 
HETATM   19  F   LIG     1       3.331   2.336   2.952  1.00  0.00    -0.166 F 
HETATM   20  F   LIG     1       4.308   0.307   2.987  1.00  0.00    -0.166 F 
ENDBRANCH   3  17
TORSDOF 4
