REMARK  1 active torsions:
REMARK  status: ('A' for Active; 'I' for Inactive)
REMARK       I    between atoms: C_2  and  N_3 
REMARK    1  A    between atoms: N_3  and  C_4 
ROOT
HETATM    1  C   LIG     1      -0.377   0.228   0.051  1.00  0.00     0.095 A 
HETATM    2  C   LIG     1      -0.815  -0.975   0.636  1.00  0.00     0.020 A 
HETATM    3  C   LIG     1      -2.145  -1.383   0.506  1.00  0.00     0.002 A 
HETATM    4  C   LIG     1      -3.054  -0.593  -0.198  1.00  0.00     0.001 A 
HETATM    5  C   LIG     1      -2.637   0.611  -0.770  1.00  0.00     0.013 A 
HETATM    6  C   LIG     1      -1.307   1.029  -0.645  1.00  0.00     0.075 A 
HETATM    7 CL   LIG     1      -0.825   2.542  -1.402  1.00  0.00    -0.081 Cl
ENDROOT
BRANCH   1   8
HETATM    8  N   LIG     1       0.985   0.664   0.208  1.00  0.00    -0.211 NA
HETATM    9  C   LIG     1       2.114  -0.222   0.145  1.00  0.00     0.256 C 
HETATM   10  C   LIG     1       3.478   0.264   0.515  1.00  0.00     0.100 C 
HETATM   11  O   LIG     1       1.975  -1.410  -0.253  1.00  0.00    -0.270 OA
ENDBRANCH   1   8
TORSDOF 1
