REMARK  0 active torsions:
REMARK  status: ('A' for Active; 'I' for Inactive)
ROOT
HETATM    1  C   LIG     1       2.483  -0.523   0.767  1.00  0.00     0.129 C 
HETATM    2  N   LIG     1       1.250   0.198   0.443  1.00  0.00    -0.305 N 
HETATM    3  C   LIG     1      -0.066  -0.405   0.659  1.00  0.00     0.359 C 
HETATM    4  N   LIG     1      -0.888  -0.189  -0.546  1.00  0.00     0.173 N 
HETATM    5  C   LIG     1      -2.011  -1.139  -0.587  1.00  0.00     0.289 C 
HETATM    6  C   LIG     1      -1.395   1.202  -0.636  1.00  0.00     0.317 C 
HETATM    7  S   LIG     1      -0.183   2.502  -0.141  1.00  0.00    -0.051 SA
HETATM    8  C   LIG     1       1.279   1.473  -0.211  1.00  0.00     0.142 C 
HETATM    9  S   LIG     1       2.499   1.892  -1.221  1.00  0.00    -0.053 SA
ENDROOT
TORSDOF 0
