REMARK  1 active torsions:
REMARK  status: ('A' for Active; 'I' for Inactive)
REMARK    1  A    between atoms: C_2  and  C_3 
ROOT
HETATM    1  C   LIG     1       0.671  -0.279  -0.007  1.00  0.00     0.065 A 
HETATM    2  C   LIG     1      -0.331  -1.235   0.248  1.00  0.00     0.018 A 
HETATM    3  C   LIG     1      -1.683  -0.875   0.204  1.00  0.00     0.058 A 
HETATM    4 CL   LIG     1      -2.921  -2.074   0.532  1.00  0.00    -0.082 Cl
HETATM    5  C   LIG     1      -2.047   0.439  -0.102  1.00  0.00     0.011 A 
HETATM    6  C   LIG     1      -1.062   1.392  -0.368  1.00  0.00     0.001 A 
HETATM    7  C   LIG     1       0.290   1.038  -0.324  1.00  0.00     0.006 A 
ENDROOT
BRANCH   1   8
HETATM    8  C   LIG     1       2.100  -0.675   0.040  1.00  0.00     0.211 C 
HETATM    9  O   LIG     1       3.116   0.260   0.240  1.00  0.00    -0.644 OA
HETATM   10  O   LIG     1       2.418  -1.887  -0.090  1.00  0.00    -0.644 OA
ENDBRANCH   1   8
TORSDOF 1
