REMARK  4 active torsions:
REMARK  status: ('A' for Active; 'I' for Inactive)
REMARK    1  A    between atoms: C_2  and  C_5 
REMARK       I    between atoms: C_2  and  N_3 
REMARK    2  A    between atoms: C_5  and  C_6 
REMARK    3  A    between atoms: C_9  and  C_10 
REMARK    4  A    between atoms: C_10  and  C_11 
ROOT
HETATM    1  C   LIG     1       1.671  -0.041   0.460  1.00  0.00    -0.013 A 
HETATM    2  C   LIG     1       0.978   1.163   0.672  1.00  0.00    -0.004 A 
HETATM    3  C   LIG     1      -0.415   1.170   0.777  1.00  0.00    -0.005 A 
HETATM    4  C   LIG     1      -1.141  -0.026   0.675  1.00  0.00    -0.022 A 
HETATM    5  C   LIG     1      -0.454  -1.230   0.457  1.00  0.00    -0.005 A 
HETATM    6  C   LIG     1       0.940  -1.238   0.351  1.00  0.00    -0.004 A 
ENDROOT
BRANCH   1   7
HETATM    7  C   LIG     1       3.182  -0.038   0.340  1.00  0.00     0.105 C 
HETATM    8  C   LIG     1       3.826  -0.825   1.490  1.00  0.00     0.015 C 
BRANCH   7   9
HETATM    9  C   LIG     1       3.602  -0.556  -1.017  1.00  0.00     0.285 C 
HETATM   10  O   LIG     1       3.951  -1.760  -1.157  1.00  0.00    -0.268 OA
HETATM   11  N   LIG     1       3.554   0.293  -2.168  1.00  0.00    -0.058 NA
HETATM   12  O   LIG     1       3.107   1.569  -2.081  1.00  0.00    -0.058 OA
ENDBRANCH   7   9
ENDBRANCH   1   7
BRANCH   4  13
HETATM   13  C   LIG     1      -2.647  -0.010   0.762  1.00  0.00     0.026 C 
BRANCH  13  14
HETATM   14  C   LIG     1      -3.298   0.475  -0.551  1.00  0.00     0.004 C 
HETATM   15  C   LIG     1      -3.045  -0.506  -1.705  1.00  0.00     0.000 C 
HETATM   16  C   LIG     1      -4.806   0.670  -0.351  1.00  0.00     0.000 C 
ENDBRANCH  13  14
ENDBRANCH   4  13
TORSDOF 4
