REMARK  1 active torsions:
REMARK  status: ('A' for Active; 'I' for Inactive)
REMARK       I    between atoms: C_2  and  N_3 
REMARK    1  A    between atoms: N_3  and  C_4 
ROOT
HETATM    1  C   LIG     1       0.205   0.071  -0.121  1.00  0.00     0.084 A 
HETATM    2  C   LIG     1      -0.951   0.456   0.577  1.00  0.00     0.015 A 
HETATM    3  C   LIG     1      -2.206  -0.063   0.224  1.00  0.00    -0.020 A 
HETATM    4  C   LIG     1      -3.438   0.374   0.960  1.00  0.00     0.031 C 
HETATM    5  C   LIG     1      -2.309  -0.939  -0.866  1.00  0.00    -0.004 A 
HETATM    6  C   LIG     1      -1.167  -1.308  -1.581  1.00  0.00     0.001 A 
HETATM    7  C   LIG     1       0.084  -0.805  -1.215  1.00  0.00     0.019 A 
ENDROOT
BRANCH   1   8
HETATM    8  N   LIG     1       1.475   0.630   0.255  1.00  0.00    -0.212 NA
HETATM    9  C   LIG     1       2.725  -0.071   0.154  1.00  0.00     0.256 C 
HETATM   10  C   LIG     1       4.017   0.656   0.344  1.00  0.00     0.100 C 
HETATM   11  O   LIG     1       2.749  -1.314  -0.058  1.00  0.00    -0.270 OA
ENDBRANCH   1   8
TORSDOF 1
