REMARK  2 active torsions:
REMARK  status: ('A' for Active; 'I' for Inactive)
REMARK    1  A    between atoms: C_2  and  C_4 
REMARK    2  A    between atoms: C_4  and  C_5 
ROOT
HETATM    1  C   LIG     1       0.708  -0.179  -0.491  1.00  0.00    -0.022 A 
HETATM    2  C   LIG     1       1.437  -0.954   0.427  1.00  0.00    -0.004 A 
HETATM    3  C   LIG     1       2.558  -0.419   1.070  1.00  0.00    -0.000 A 
HETATM    4  C   LIG     1       2.965   0.889   0.795  1.00  0.00    -0.000 A 
HETATM    5  C   LIG     1       2.254   1.663  -0.127  1.00  0.00    -0.000 A 
HETATM    6  C   LIG     1       1.133   1.131  -0.772  1.00  0.00    -0.004 A 
ENDROOT
BRANCH   1   7
HETATM    7  C   LIG     1      -0.493  -0.761  -1.198  1.00  0.00     0.026 C 
BRANCH   7   8
HETATM    8  C   LIG     1      -1.829  -0.528  -0.454  1.00  0.00     0.004 C 
HETATM    9  C   LIG     1      -2.173   0.962  -0.329  1.00  0.00     0.000 C 
HETATM   10  C   LIG     1      -1.856  -1.210   0.920  1.00  0.00     0.000 C 
ENDBRANCH   7   8
ENDBRANCH   1   7
TORSDOF 2
