REMARK  4 active torsions:
REMARK  status: ('A' for Active; 'I' for Inactive)
REMARK    1  A    between atoms: C_2  and  C_3 
REMARK    2  A    between atoms: C_3  and  C_4 
REMARK    3  A    between atoms: C_4  and  C_5 
REMARK    4  A    between atoms: C_5  and  C_6 
ROOT
HETATM    1  C   LIG     1      -1.465   0.030  -0.255  1.00  0.00    -0.022 A 
HETATM    2  C   LIG     1      -2.327   1.036   0.215  1.00  0.00    -0.004 A 
HETATM    3  C   LIG     1      -3.627   0.718   0.621  1.00  0.00    -0.000 A 
HETATM    4  C   LIG     1      -4.076  -0.604   0.559  1.00  0.00    -0.000 A 
HETATM    5  C   LIG     1      -3.227  -1.610   0.090  1.00  0.00    -0.000 A 
HETATM    6  C   LIG     1      -1.926  -1.296  -0.318  1.00  0.00    -0.004 A 
ENDROOT
BRANCH   1   7
HETATM    7  C   LIG     1      -0.065   0.376  -0.696  1.00  0.00     0.026 C 
BRANCH   7   8
HETATM    8  C   LIG     1       0.825   0.707   0.511  1.00  0.00     0.004 C 
BRANCH   8   9
HETATM    9  C   LIG     1       2.217   1.223   0.107  1.00  0.00     0.000 C 
BRANCH   9  10
HETATM   10  C   LIG     1       3.081   0.215  -0.672  1.00  0.00     0.000 C 
HETATM   11  C   LIG     1       3.383  -1.055   0.122  1.00  0.00     0.000 C 
ENDBRANCH   9  10
ENDBRANCH   8   9
ENDBRANCH   7   8
ENDBRANCH   1   7
TORSDOF 4
