REMARK  2 active torsions:
REMARK  status: ('A' for Active; 'I' for Inactive)
REMARK       I    between atoms: C_2  and  N_3 
REMARK    1  A    between atoms: N_3  and  C_4 
REMARK    2  A    between atoms: C_4  and  C_5 
ROOT
HETATM    1  C   LIG     1      -0.652   0.368   0.376  1.00  0.00     0.002 A 
HETATM    2  C   LIG     1      -1.044  -0.879   0.889  1.00  0.00    -0.002 A 
HETATM    3  C   LIG     1      -2.381  -1.283   0.817  1.00  0.00    -0.000 A 
HETATM    4  C   LIG     1      -3.335  -0.445   0.233  1.00  0.00    -0.000 A 
HETATM    5  C   LIG     1      -2.953   0.798  -0.280  1.00  0.00    -0.000 A 
HETATM    6  C   LIG     1      -1.617   1.206  -0.210  1.00  0.00    -0.002 A 
ENDROOT
BRANCH   1   7
HETATM    7  C   LIG     1       0.790   0.796   0.456  1.00  0.00     0.157 C 
BRANCH   7   8
HETATM    8  N   LIG     1       1.626  -0.029  -0.415  1.00  0.00    -0.217 NA
HETATM    9  C   LIG     1       3.045   0.157  -0.485  1.00  0.00     0.351 C 
HETATM   10  N   LIG     1       3.831  -0.664  -1.347  1.00  0.00    -0.038 NA
HETATM   11  O   LIG     1       3.607   1.044   0.212  1.00  0.00    -0.249 OA
ENDBRANCH   7   8
ENDBRANCH   1   7
TORSDOF 2
