REMARK  8 active torsions:
REMARK  status: ('A' for Active; 'I' for Inactive)
REMARK    1  A    between atoms: C_5  and  C_6 
REMARK    2  A    between atoms: C_6  and  C_7 
REMARK    3  A    between atoms: C_9  and  O_10 
REMARK    4  A    between atoms: C_12  and  O_13 
REMARK    5  A    between atoms: O_13  and  C_14 
REMARK    6  A    between atoms: C_14  and  C_15 
REMARK    7  A    between atoms: C_15  and  O_16 
REMARK    8  A    between atoms: C_18  and  O_19 
ROOT
HETATM    1  C   LIG     1       0.909  -0.826  -1.295  1.00  0.00    -0.014 A 
HETATM    2  C   LIG     1       0.043   0.104  -1.882  1.00  0.00     0.022 A 
HETATM    3  C   LIG     1      -1.155   0.473  -1.240  1.00  0.00     0.118 A 
HETATM    4  C   LIG     1      -1.489  -0.089   0.002  1.00  0.00     0.138 A 
HETATM    5  C   LIG     1      -0.620  -1.039   0.602  1.00  0.00     0.118 A 
HETATM    6  C   LIG     1       0.562  -1.409  -0.066  1.00  0.00     0.022 A 
ENDROOT
BRANCH   1   7
HETATM    7  C   LIG     1       2.191  -1.221  -1.984  1.00  0.00     0.057 C 
BRANCH   7   8
HETATM    8  C   LIG     1       3.395  -0.831  -1.156  1.00  0.00     0.033 A 
HETATM    9  C   LIG     1       4.047  -1.806  -0.387  1.00  0.00     0.100 A 
HETATM   10  N   LIG     1       5.098  -1.469   0.406  1.00  0.00    -0.213 NA
HETATM   11  C   LIG     1       5.532  -0.186   0.482  1.00  0.00     0.238 A 
HETATM   12  N   LIG     1       6.637   0.143   1.324  1.00  0.00    -0.060 NA
HETATM   13  N   LIG     1       4.919   0.782  -0.248  1.00  0.00    -0.201 NA
HETATM   14  C   LIG     1       3.869   0.500  -1.066  1.00  0.00     0.151 A 
HETATM   15  N   LIG     1       3.275   1.571  -1.803  1.00  0.00    -0.080 NA
ENDBRANCH   7   8
ENDBRANCH   1   7
BRANCH   5  16
HETATM   16  O   LIG     1      -0.926  -1.568   1.863  1.00  0.00    -0.326 OA
HETATM   17  C   LIG     1      -0.343  -2.754   2.414  1.00  0.00     0.181 C 
ENDBRANCH   5  16
BRANCH   3  18
HETATM   18  O   LIG     1      -2.049   1.394  -1.813  1.00  0.00    -0.326 OA
HETATM   19  C   LIG     1      -1.864   2.028  -3.073  1.00  0.00     0.181 C 
ENDBRANCH   3  18
BRANCH   4  20
HETATM   20  O   LIG     1      -2.697   0.342   0.588  1.00  0.00    -0.324 OA
BRANCH  20  21
HETATM   21  C   LIG     1      -3.307  -0.203   1.757  1.00  0.00     0.181 C 
BRANCH  21  22
HETATM   22  C   LIG     1      -4.670   0.447   1.965  1.00  0.00     0.175 C 
BRANCH  22  23
HETATM   23  O   LIG     1      -4.497   1.830   2.188  1.00  0.00    -0.349 OA
HETATM   24  C   LIG     1      -5.757   2.467   2.178  1.00  0.00     0.174 C 
ENDBRANCH  22  23
ENDBRANCH  21  22
ENDBRANCH  20  21
ENDBRANCH   4  20
TORSDOF 8
