REMARK  1 active torsions:
REMARK  status: ('A' for Active; 'I' for Inactive)
REMARK       I    between atoms: C_2  and  N_3 
REMARK    1  A    between atoms: N_3  and  C_4 
ROOT
HETATM    1  C   LIG     1       0.221  -0.299   0.538  1.00  0.00     0.084 A 
HETATM    2  C   LIG     1       1.359  -1.060   0.237  1.00  0.00     0.020 A 
HETATM    3  C   LIG     1       2.491  -0.450  -0.312  1.00  0.00     0.013 A 
HETATM    4  C   LIG     1       2.500   0.929  -0.547  1.00  0.00     0.058 A 
HETATM    5 CL   LIG     1       3.921   1.694  -1.232  1.00  0.00    -0.082 Cl
HETATM    6  C   LIG     1       1.378   1.698  -0.221  1.00  0.00     0.013 A 
HETATM    7  C   LIG     1       0.245   1.090   0.327  1.00  0.00     0.020 A 
ENDROOT
BRANCH   1   8
HETATM    8  N   LIG     1      -0.922  -0.935   1.127  1.00  0.00    -0.212 NA
HETATM    9  C   LIG     1      -2.264  -0.792   0.635  1.00  0.00     0.256 C 
HETATM   10  C   LIG     1      -2.556  -0.183  -0.704  1.00  0.00     0.100 C 
HETATM   11  O   LIG     1      -3.219  -1.249   1.319  1.00  0.00    -0.270 OA
ENDBRANCH   1   8
TORSDOF 1
