REMARK  5 active torsions:
REMARK  status: ('A' for Active; 'I' for Inactive)
REMARK    1  A    between atoms: C_2  and  C_3 
REMARK    2  A    between atoms: C_3  and  C_4 
REMARK    3  A    between atoms: C_4  and  C_5 
REMARK    4  A    between atoms: C_5  and  O_6 
REMARK    5  A    between atoms: O_6  and  C_7 
ROOT
HETATM    1  C   LIG     1       0.958   0.845  -0.494  1.00  0.00     0.272 C 
HETATM    2  O   LIG     1       1.288   0.473  -1.654  1.00  0.00    -0.264 OA
ENDROOT
BRANCH   1   3
HETATM    3  C   LIG     1      -0.479   1.123  -0.184  1.00  0.00     0.096 C 
BRANCH   3   4
HETATM    4  C   LIG     1      -1.318  -0.155  -0.289  1.00  0.00     0.010 C 
BRANCH   4   5
HETATM    5  C   LIG     1      -2.786   0.121   0.053  1.00  0.00     0.001 C 
HETATM    6  C   LIG     1      -3.625  -1.149  -0.052  1.00  0.00     0.000 C 
ENDBRANCH   4   5
ENDBRANCH   3   4
ENDBRANCH   1   3
BRANCH   1   7
HETATM    7  O   LIG     1       1.923   1.015   0.504  1.00  0.00    -0.302 OA
BRANCH   7   8
HETATM    8  C   LIG     1       3.306   0.717   0.319  1.00  0.00     0.152 C 
HETATM    9  C   LIG     1       3.539  -0.789   0.347  1.00  0.00     0.035 C 
ENDBRANCH   7   8
ENDBRANCH   1   7
TORSDOF 5
