REMARK  4 active torsions:
REMARK  status: ('A' for Active; 'I' for Inactive)
REMARK    1  A    between atoms: C_4  and  C_5 
REMARK    2  A    between atoms: C_5  and  C_6 
REMARK    3  A    between atoms: C_6  and  C_7 
REMARK    4  A    between atoms: C_9  and  C_10 
ROOT
HETATM    1  C   LIG     1       0.542   0.086   0.665  1.00  0.00     0.027 C 
ENDROOT
BRANCH   1   2
HETATM    2  C   LIG     1      -0.260  -1.004  -0.060  1.00  0.00     0.030 C 
BRANCH   2   3
HETATM    3  C   LIG     1      -1.709  -0.964   0.358  1.00  0.00    -0.034 C 
HETATM    4  C   LIG     1      -2.660  -0.216  -0.246  1.00  0.00    -0.048 C 
HETATM    5  C   LIG     1      -4.060  -0.247   0.312  1.00  0.00     0.026 C 
HETATM    6  C   LIG     1      -2.363   0.628  -1.463  1.00  0.00     0.026 C 
ENDBRANCH   2   3
ENDBRANCH   1   2
BRANCH   1   7
HETATM    7  C   LIG     1       2.028   0.152   0.339  1.00  0.00    -0.040 C 
HETATM    8  C   LIG     1       2.705  -0.811  -0.615  1.00  0.00     0.026 C 
HETATM    9  C   LIG     1       2.740   1.122   0.946  1.00  0.00     0.037 C 
BRANCH   9  10
HETATM   10  C   LIG     1       4.184   1.341   0.750  1.00  0.00     0.234 C 
HETATM   11  O   LIG     1       4.762   2.273   1.367  1.00  0.00    -0.283 OA
ENDBRANCH   9  10
ENDBRANCH   1   7
TORSDOF 4
