REMARK  1 active torsions:
REMARK  status: ('A' for Active; 'I' for Inactive)
REMARK    1  A    between atoms: C_2  and  C_3 
REMARK       I    between atoms: C_2  and  N_9 
ROOT
HETATM    1  C   LIG     1      -0.263  -0.135  -0.448  1.00  0.00     0.062 A 
HETATM    2  C   LIG     1      -0.736  -0.365   0.855  1.00  0.00     0.025 A 
HETATM    3  C   LIG     1      -1.942   0.211   1.262  1.00  0.00     0.099 A 
HETATM    4  N   LIG     1      -2.658   0.979   0.400  1.00  0.00    -0.242 NA
HETATM    5  C   LIG     1      -2.233   1.207  -0.870  1.00  0.00     0.099 A 
HETATM    6  C   LIG     1      -1.034   0.650  -1.320  1.00  0.00     0.025 A 
ENDROOT
BRANCH   1   7
HETATM    7  C   LIG     1       1.003  -0.743  -0.921  1.00  0.00     0.298 C 
HETATM    8  O   LIG     1       1.101  -1.097  -2.127  1.00  0.00    -0.264 OA
HETATM    9  N   LIG     1       2.127  -0.933  -0.050  1.00  0.00    -0.085 NA
HETATM   10  N   LIG     1       2.256  -0.221   1.153  1.00  0.00    -0.019 N 
ENDBRANCH   1   7
TORSDOF 1
