REMARK  0 active torsions:
REMARK  status: ('A' for Active; 'I' for Inactive)
ROOT
HETATM    1  F   LIG     1       2.148  -1.725   0.047  1.00  0.00    -0.204 F 
HETATM    2  C   LIG     1       1.091  -0.876   0.024  1.00  0.00     0.140 A 
HETATM    3  C   LIG     1      -0.213  -1.383   0.004  1.00  0.00     0.032 A 
HETATM    4  C   LIG     1      -1.304  -0.507  -0.020  1.00  0.00     0.032 A 
HETATM    5  C   LIG     1      -1.091   0.876  -0.024  1.00  0.00     0.140 A 
HETATM    6  F   LIG     1      -2.148   1.725  -0.047  1.00  0.00    -0.204 F 
HETATM    7  C   LIG     1       0.213   1.383  -0.004  1.00  0.00     0.032 A 
HETATM    8  C   LIG     1       1.304   0.507   0.020  1.00  0.00     0.032 A 
ENDROOT
TORSDOF 0
