REMARK  2 active torsions:
REMARK  status: ('A' for Active; 'I' for Inactive)
REMARK    1  A    between atoms: C_2  and  C_4 
REMARK    2  A    between atoms: C_4  and  C_5 
ROOT
HETATM    1  C   LIG     1       0.760  -0.471  -0.510  1.00  0.00     0.137 C 
ENDROOT
BRANCH   1   2
HETATM    2  C   LIG     1      -0.432   0.285   0.102  1.00  0.00     0.313 C 
HETATM    3  C   LIG     1      -1.608   0.326  -0.884  1.00  0.00     0.042 C 
HETATM    4  N   LIG     1      -0.836  -0.340   1.365  1.00  0.00     0.616 N 
ENDBRANCH   1   2
BRANCH   1   5
HETATM    5  C   LIG     1       1.955  -0.444   0.400  1.00  0.00     0.187 C 
HETATM    6  O   LIG     1       2.617   0.751   0.669  1.00  0.00    -0.647 OA
HETATM    7  O   LIG     1       2.374  -1.513   0.918  1.00  0.00    -0.647 OA
ENDBRANCH   1   5
TORSDOF 2
