REMARK  0 active torsions:
REMARK  status: ('A' for Active; 'I' for Inactive)
ROOT
HETATM    1 CL   LIG     1      -2.670  -1.627   0.038  1.00  0.00    -0.082 Cl
HETATM    2  C   LIG     1      -1.186  -0.692   0.017  1.00  0.00     0.059 A 
HETATM    3  C   LIG     1       0.053  -1.343   0.025  1.00  0.00     0.023 A 
HETATM    4  C   LIG     1       1.237  -0.596   0.007  1.00  0.00     0.059 A 
HETATM    5 CL   LIG     1       2.790  -1.413   0.018  1.00  0.00    -0.082 Cl
HETATM    6  C   LIG     1       1.181   0.802  -0.019  1.00  0.00     0.011 A 
HETATM    7  C   LIG     1      -0.057   1.452  -0.027  1.00  0.00     0.002 A 
HETATM    8  C   LIG     1      -1.240   0.707  -0.009  1.00  0.00     0.011 A 
ENDROOT
TORSDOF 0
