REMARK  2 active torsions:
REMARK  status: ('A' for Active; 'I' for Inactive)
REMARK    1  A    between atoms: C_2  and  C_3 
REMARK    2  A    between atoms: C_3  and  C_4 
ROOT
HETATM    1  C   LIG     1       0.521   0.065   0.640  1.00  0.00     0.011 C 
ENDROOT
BRANCH   1   2
HETATM    2  C   LIG     1      -0.629  -0.078  -0.362  1.00  0.00     0.001 C 
HETATM    3  C   LIG     1      -1.983   0.011   0.337  1.00  0.00     0.000 C 
ENDBRANCH   1   2
BRANCH   1   4
HETATM    4  C   LIG     1       1.875  -0.024  -0.062  1.00  0.00     0.063 C 
HETATM    5  I   LIG     1       3.458   0.179   1.359  1.00  0.00    -0.075 I 
ENDBRANCH   1   4
TORSDOF 2
