REMARK  3 active torsions:
REMARK  status: ('A' for Active; 'I' for Inactive)
REMARK    1  A    between atoms: C_2  and  O_3 
REMARK    2  A    between atoms: O_3  and  C_4 
REMARK    3  A    between atoms: C_4  and  C_5 
ROOT
HETATM    1  C   LIG     1       0.685  -0.452   0.540  1.00  0.00     0.152 C 
ENDROOT
BRANCH   1   2
HETATM    2  O   LIG     1       1.339   0.443  -0.356  1.00  0.00    -0.294 OA
BRANCH   2   3
HETATM    3  C   LIG     1       2.727   0.591  -0.394  1.00  0.00     0.360 C 
HETATM    4  O   LIG     1       3.472  -0.072   0.377  1.00  0.00    -0.253 OA
ENDBRANCH   2   3
ENDBRANCH   1   2
BRANCH   1   5
HETATM    5  C   LIG     1      -0.839  -0.396   0.350  1.00  0.00     0.030 C 
HETATM    6  C   LIG     1      -1.387   1.002   0.659  1.00  0.00     0.003 C 
HETATM    7  C   LIG     1      -1.237  -0.835  -1.065  1.00  0.00     0.003 C 
ENDBRANCH   1   5
TORSDOF 3
