REMARK  1 active torsions:
REMARK  status: ('A' for Active; 'I' for Inactive)
REMARK    1  A    between atoms: C_2  and  C_3 
ROOT
HETATM    1  C   LIG     1       0.222  -0.594  -0.038  1.00  0.00     0.123 C 
HETATM    2  C   LIG     1       1.581  -0.045   0.015  1.00  0.00     0.075 C 
HETATM    3  N   LIG     1       2.654   0.387   0.057  1.00  0.00    -0.196 NA
ENDROOT
BRANCH   1   4
HETATM    4  C   LIG     1      -0.809   0.529   0.027  1.00  0.00     0.111 C 
HETATM    5 CL   LIG     1      -2.455  -0.150  -0.039  1.00  0.00    -0.113 Cl
ENDBRANCH   1   4
TORSDOF 1
