REMARK  3 active torsions:
REMARK  status: ('A' for Active; 'I' for Inactive)
REMARK    1  A    between atoms: C_2  and  C_3 
REMARK    2  A    between atoms: C_3  and  C_4 
REMARK    3  A    between atoms: C_4  and  C_5 
ROOT
HETATM    1  C   LIG     1      -0.123  -0.563  -0.774  1.00  0.00     0.001 C 
ENDROOT
BRANCH   1   2
HETATM    2  C   LIG     1       1.300  -0.893  -0.297  1.00  0.00     0.000 C 
HETATM    3  C   LIG     1       2.222   0.327  -0.298  1.00  0.00     0.000 C 
ENDBRANCH   1   2
BRANCH   1   4
HETATM    4  C   LIG     1      -0.904   0.282   0.242  1.00  0.00     0.018 C 
BRANCH   4   5
HETATM    5  C   LIG     1      -2.349   0.485  -0.211  1.00  0.00     0.095 C 
HETATM    6 CL   LIG     1      -3.229   1.477   0.979  1.00  0.00    -0.114 Cl
ENDBRANCH   4   5
ENDBRANCH   1   4
TORSDOF 3
