REMARK  0 active torsions:
REMARK  status: ('A' for Active; 'I' for Inactive)
ROOT
HETATM    1  C   LIG     1      -0.602  -1.381   0.312  1.00  0.00    -0.021 C 
HETATM    2  C   LIG     1       0.733  -1.390   0.375  1.00  0.00    -0.004 C 
HETATM    3  C   LIG     1       1.608  -0.340  -0.191  1.00  0.00    -0.000 C 
HETATM    4  C   LIG     1       1.316   0.968  -0.260  1.00  0.00    -0.000 C 
HETATM    5  C   LIG     1       0.067   1.600   0.217  1.00  0.00    -0.004 C 
HETATM    6  C   LIG     1      -1.137   1.020   0.185  1.00  0.00    -0.021 C 
HETATM    7  C   LIG     1      -1.371  -0.328  -0.420  1.00  0.00     0.051 C 
ENDROOT
TORSDOF 0
