REMARK  4 active torsions:
REMARK  status: ('A' for Active; 'I' for Inactive)
REMARK    1  A    between atoms: C_2  and  C_3 
REMARK    2  A    between atoms: C_3  and  C_4 
REMARK    3  A    between atoms: C_4  and  C_5 
REMARK    4  A    between atoms: C_5  and  C_6 
ROOT
HETATM    1  C   LIG     1       0.559  -0.362  -0.435  1.00  0.00     0.001 C 
ENDROOT
BRANCH   1   2
HETATM    2  C   LIG     1       1.895   0.058   0.189  1.00  0.00     0.018 C 
BRANCH   2   3
HETATM    3  C   LIG     1       3.066  -0.646  -0.495  1.00  0.00     0.095 C 
HETATM    4 CL   LIG     1       4.603  -0.139   0.250  1.00  0.00    -0.114 Cl
ENDBRANCH   2   3
ENDBRANCH   1   2
BRANCH   1   5
HETATM    5  C   LIG     1      -0.616   0.345   0.251  1.00  0.00     0.000 C 
BRANCH   5   6
HETATM    6  C   LIG     1      -1.951  -0.075  -0.373  1.00  0.00     0.000 C 
HETATM    7  C   LIG     1      -3.123   0.626   0.308  1.00  0.00     0.000 C 
ENDBRANCH   5   6
ENDBRANCH   1   5
TORSDOF 4
