REMARK  12 active torsions:
REMARK  status: ('A' for Active; 'I' for Inactive)
REMARK    1  A    between atoms: C_2  and  C_4 
REMARK    2  A    between atoms: C_4  and  C_5 
REMARK    3  A    between atoms: C_5  and  C_6 
REMARK    4  A    between atoms: C_6  and  C_7 
REMARK    5  A    between atoms: C_7  and  C_8 
REMARK    6  A    between atoms: C_8  and  C_9 
REMARK    7  A    between atoms: C_9  and  C_10 
REMARK    8  A    between atoms: C_10  and  C_11 
REMARK    9  A    between atoms: C_11  and  C_12 
REMARK   10  A    between atoms: C_12  and  C_13 
REMARK   11  A    between atoms: C_13  and  C_14 
REMARK   12  A    between atoms: C_14  and  C_15 
ROOT
HETATM    1  C   LIG     1       1.620   1.181  -0.325  1.00  0.00     0.000 C 
ENDROOT
BRANCH   1   2
HETATM    2  C   LIG     1       1.525  -0.321  -0.639  1.00  0.00     0.000 C 
BRANCH   2   3
HETATM    3  C   LIG     1       2.688  -1.129  -0.037  1.00  0.00     0.001 C 
BRANCH   3   4
HETATM    4  C   LIG     1       4.007  -0.929  -0.798  1.00  0.00     0.011 C 
BRANCH   4   5
HETATM    5  C   LIG     1       5.097  -1.863  -0.261  1.00  0.00     0.098 C 
BRANCH   5   6
HETATM    6  C   LIG     1       6.388  -1.632  -0.986  1.00  0.00     0.185 C 
HETATM    7  O   LIG     1       6.652  -2.295  -2.024  1.00  0.00    -0.647 OA
HETATM    8  O   LIG     1       7.280  -0.655  -0.552  1.00  0.00    -0.647 OA
ENDBRANCH   5   6
ENDBRANCH   4   5
ENDBRANCH   3   4
ENDBRANCH   2   3
ENDBRANCH   1   2
BRANCH   1   9
HETATM    9  C   LIG     1       0.525   2.007  -1.023  1.00  0.00     0.000 C 
BRANCH   9  10
HETATM   10  C   LIG     1      -0.916   1.660  -0.607  1.00  0.00     0.000 C 
BRANCH  10  11
HETATM   11  C   LIG     1      -1.175   1.869   0.894  1.00  0.00     0.000 C 
BRANCH  11  12
HETATM   12  C   LIG     1      -2.668   1.791   1.258  1.00  0.00     0.000 C 
BRANCH  12  13
HETATM   13  C   LIG     1      -3.273   0.384   1.069  1.00  0.00     0.000 C 
BRANCH  13  14
HETATM   14  C   LIG     1      -4.114   0.280  -0.215  1.00  0.00     0.000 C 
BRANCH  14  15
HETATM   15  C   LIG     1      -4.579  -1.156  -0.501  1.00  0.00     0.000 C 
HETATM   16  C   LIG     1      -5.644  -1.639   0.484  1.00  0.00     0.000 C 
ENDBRANCH  14  15
ENDBRANCH  13  14
ENDBRANCH  12  13
ENDBRANCH  11  12
ENDBRANCH  10  11
ENDBRANCH   9  10
ENDBRANCH   1   9
TORSDOF 12
