REMARK  4 active torsions:
REMARK  status: ('A' for Active; 'I' for Inactive)
REMARK    1  A    between atoms: C_2  and  C_25 
REMARK    2  A    between atoms: C_2  and  C_3 
REMARK    3  A    between atoms: C_25  and  C_26 
REMARK    4  A    between atoms: C_26  and  C_27 
ROOT
HETATM    1  C   LIG     1       2.921  -0.308   0.581  1.00  0.00     0.002 C 
HETATM    2  C   LIG     1       2.819  -1.804   1.037  1.00  0.00     0.000 C 
HETATM    3  C   LIG     1       1.349  -2.140   1.242  1.00  0.00     0.000 C 
HETATM    4  C   LIG     1       0.651  -1.156   0.330  1.00  0.00     0.003 C 
HETATM    5  C   LIG     1      -0.912  -1.138   0.312  1.00  0.00     0.003 C 
HETATM    6  C   LIG     1      -1.601  -1.772   1.547  1.00  0.00     0.033 C 
HETATM    7  C   LIG     1      -3.158  -1.700   1.501  1.00  0.00     0.152 C 
HETATM    8  C   LIG     1      -3.676  -1.091   0.175  1.00  0.00     0.033 C 
HETATM    9  C   LIG     1      -5.212  -1.107   0.048  1.00  0.00     0.035 C 
HETATM   10  C   LIG     1      -5.623  -0.730  -1.395  1.00  0.00     0.152 C 
HETATM   11  C   LIG     1      -4.973   0.583  -1.882  1.00  0.00     0.033 C 
HETATM   12  C   LIG     1      -3.447   0.621  -1.645  1.00  0.00     0.003 C 
HETATM   13  C   LIG     1      -3.050   0.313  -0.165  1.00  0.00     0.003 C 
HETATM   14  C   LIG     1      -1.472   0.283   0.069  1.00  0.00     0.003 C 
HETATM   15  C   LIG     1      -0.607   1.046  -0.973  1.00  0.00     0.033 C 
HETATM   16  C   LIG     1       0.931   1.116  -0.660  1.00  0.00     0.152 C 
HETATM   17  C   LIG     1       1.398   0.188   0.518  1.00  0.00     0.028 C 
HETATM   18  C   LIG     1       1.064   0.881   1.896  1.00  0.00     0.003 C 
HETATM   19  O   LIG     1       1.287   2.454  -0.399  1.00  0.00    -0.224 OA
HETATM   20  C   LIG     1      -3.628   1.456   0.737  1.00  0.00     0.000 C 
HETATM   21  O   LIG     1      -7.022  -0.660  -1.506  1.00  0.00    -0.224 OA
HETATM   22  O   LIG     1      -3.641  -0.966   2.595  1.00  0.00    -0.224 OA
ENDROOT
BRANCH   1  23
HETATM   23  C   LIG     1       3.893  -0.152  -0.665  1.00  0.00     0.001 C 
HETATM   24  C   LIG     1       5.248  -0.871  -0.389  1.00  0.00     0.000 C 
BRANCH  23  25
HETATM   25  C   LIG     1       4.210   1.346  -1.005  1.00  0.00     0.011 C 
BRANCH  25  26
HETATM   26  C   LIG     1       5.255   1.577  -2.125  1.00  0.00     0.098 C 
BRANCH  26  27
HETATM   27  C   LIG     1       6.654   1.675  -1.591  1.00  0.00     0.185 C 
HETATM   28  O   LIG     1       6.977   2.682  -0.683  1.00  0.00    -0.647 OA
HETATM   29  O   LIG     1       7.543   0.866  -1.973  1.00  0.00    -0.647 OA
ENDBRANCH  26  27
ENDBRANCH  25  26
ENDBRANCH  23  25
ENDBRANCH   1  23
TORSDOF 4
