REMARK  5 active torsions:
REMARK  status: ('A' for Active; 'I' for Inactive)
REMARK    1  A    between atoms: C_8  and  C_9 
REMARK    2  A    between atoms: C_9  and  C_15 
REMARK    3  A    between atoms: C_9  and  C_10 
REMARK    4  A    between atoms: C_10  and  O_12 
REMARK    5  A    between atoms: O_12  and  C_13 
ROOT
HETATM    1  C   LIG     1       0.437   1.008   0.530  1.00  0.00     0.145 C 
ENDROOT
BRANCH   1   2
HETATM    2  C   LIG     1       1.671   0.119   0.326  1.00  0.00     0.080 A 
HETATM    3  C   LIG     1       2.643   0.347  -0.680  1.00  0.00     0.299 A 
HETATM    4  O   LIG     1       3.677  -0.471  -0.817  1.00  0.00    -0.273 OA
HETATM    5  O   LIG     1       2.548   1.322  -1.471  1.00  0.00    -0.259 OA
HETATM    6  C   LIG     1       3.869  -1.536  -0.052  1.00  0.00     0.105 A 
HETATM    7  C   LIG     1       4.996  -2.335  -0.273  1.00  0.00     0.025 A 
HETATM    8  C   LIG     1       2.949  -1.863   0.970  1.00  0.00     0.048 A 
HETATM    9  C   LIG     1       5.223  -3.463   0.516  1.00  0.00     0.002 A 
HETATM   10  C   LIG     1       4.326  -3.797   1.530  1.00  0.00     0.000 A 
HETATM   11  C   LIG     1       3.196  -3.007   1.761  1.00  0.00     0.004 A 
HETATM   12  C   LIG     1       1.827  -1.020   1.148  1.00  0.00     0.135 A 
HETATM   13  O   LIG     1       0.847  -1.278   2.116  1.00  0.00    -0.190 OA
ENDBRANCH   1   2
BRANCH   1  14
HETATM   14  C   LIG     1      -0.824   0.351  -0.040  1.00  0.00     0.080 A 
HETATM   15  C   LIG     1      -1.939   0.087   0.790  1.00  0.00     0.135 A 
HETATM   16  C   LIG     1      -3.086  -0.532   0.236  1.00  0.00     0.048 A 
HETATM   17  O   LIG     1      -1.872   0.452   2.140  1.00  0.00    -0.190 OA
HETATM   18  C   LIG     1      -4.239  -0.848   0.989  1.00  0.00     0.004 A 
HETATM   19  C   LIG     1      -3.071  -0.849  -1.143  1.00  0.00     0.105 A 
HETATM   20  C   LIG     1      -5.338  -1.459   0.378  1.00  0.00     0.000 A 
HETATM   21  C   LIG     1      -5.308  -1.764  -0.983  1.00  0.00     0.002 A 
HETATM   22  C   LIG     1      -4.178  -1.460  -1.741  1.00  0.00     0.025 A 
HETATM   23  O   LIG     1      -2.010  -0.570  -1.887  1.00  0.00    -0.273 OA
HETATM   24  C   LIG     1      -0.917   0.003  -1.406  1.00  0.00     0.299 A 
HETATM   25  O   LIG     1       0.035   0.237  -2.196  1.00  0.00    -0.259 OA
ENDBRANCH   1  14
BRANCH   1  26
HETATM   26  C   LIG     1       0.595   2.435   0.064  1.00  0.00     0.280 C 
HETATM   27  O   LIG     1       1.462   3.169   0.614  1.00  0.00    -0.264 OA
BRANCH  26  28
HETATM   28  O   LIG     1      -0.211   2.942  -0.964  1.00  0.00    -0.301 OA
BRANCH  28  29
HETATM   29  C   LIG     1      -0.153   4.293  -1.416  1.00  0.00     0.152 C 
HETATM   30  C   LIG     1      -0.850   5.219  -0.426  1.00  0.00     0.035 C 
ENDBRANCH  28  29
ENDBRANCH  26  28
ENDBRANCH   1  26
TORSDOF 5
