REMARK  1 active torsions:
REMARK  status: ('A' for Active; 'I' for Inactive)
REMARK    1  A    between atoms: C_2  and  C_3 
ROOT
HETATM    1  C   LIG     1       0.422  -0.129  -0.220  1.00  0.00     0.053 A 
HETATM    2  C   LIG     1      -0.293  -1.311  -0.487  1.00  0.00     0.004 A 
HETATM    3  C   LIG     1      -1.664  -1.388  -0.219  1.00  0.00     0.000 A 
HETATM    4  C   LIG     1      -2.336  -0.285   0.311  1.00  0.00     0.000 A 
HETATM    5  C   LIG     1      -1.641   0.898   0.569  1.00  0.00     0.000 A 
HETATM    6  C   LIG     1      -0.270   0.980   0.304  1.00  0.00     0.004 A 
ENDROOT
BRANCH   1   7
HETATM    7  C   LIG     1       1.875  -0.060  -0.513  1.00  0.00     0.266 C 
HETATM    8  N   LIG     1       2.725   0.890   0.135  1.00  0.00    -0.057 NA
HETATM    9  O   LIG     1       2.382  -0.863  -1.342  1.00  0.00    -0.271 OA
ENDBRANCH   1   7
TORSDOF 1
