REMARK  1 active torsions:
REMARK  status: ('A' for Active; 'I' for Inactive)
REMARK    1  A    between atoms: N_3  and  C_4 
ROOT
HETATM    1  S   LIG     1       4.472   2.650   0.730  1.00  0.00    -0.055 SA
HETATM    2  C   LIG     1       2.925   2.265   0.500  1.00  0.00     0.163 C 
HETATM    3  N   LIG     1       1.701   1.961   0.319  1.00  0.00    -0.232 NA
ENDROOT
BRANCH   3   4
HETATM    4  C   LIG     1       1.212   0.612   0.194  1.00  0.00     0.082 A 
HETATM    5  C   LIG     1       2.087  -0.492   0.267  1.00  0.00     0.019 A 
HETATM    6  C   LIG     1       1.601  -1.794   0.144  1.00  0.00     0.002 A 
HETATM    7  C   LIG     1       0.241  -2.023  -0.053  1.00  0.00     0.000 A 
HETATM    8  C   LIG     1      -0.652  -0.946  -0.130  1.00  0.00     0.002 A 
HETATM    9  C   LIG     1      -2.022  -1.178  -0.329  1.00  0.00     0.000 A 
HETATM   10  C   LIG     1      -0.169   0.384  -0.007  1.00  0.00     0.018 A 
HETATM   11  C   LIG     1      -2.913  -0.105  -0.406  1.00  0.00     0.000 A 
HETATM   12  C   LIG     1      -2.446   1.204  -0.286  1.00  0.00     0.000 A 
HETATM   13  C   LIG     1      -1.085   1.452  -0.088  1.00  0.00     0.002 A 
ENDBRANCH   3   4
TORSDOF 1
