REMARK  3 active torsions:
REMARK  status: ('A' for Active; 'I' for Inactive)
REMARK    1  A    between atoms: C_2  and  C_3 
REMARK    2  A    between atoms: C_3  and  C_6 
REMARK    3  A    between atoms: C_3  and  C_4 
ROOT
HETATM    1  C   LIG     1       0.342  -0.306   0.055  1.00  0.00    -0.010 A 
HETATM    2  C   LIG     1       0.705   0.918  -0.544  1.00  0.00    -0.004 A 
HETATM    3  C   LIG     1       2.044   1.314  -0.597  1.00  0.00    -0.000 A 
HETATM    4  C   LIG     1       3.039   0.501  -0.051  1.00  0.00    -0.000 A 
HETATM    5  C   LIG     1       2.696  -0.710   0.551  1.00  0.00    -0.000 A 
HETATM    6  C   LIG     1       1.358  -1.112   0.606  1.00  0.00    -0.004 A 
ENDROOT
BRANCH   1   7
HETATM    7  C   LIG     1      -1.105  -0.772   0.146  1.00  0.00     0.143 C 
BRANCH   7   8
HETATM    8  C   LIG     1      -1.800  -0.194   1.357  1.00  0.00     0.192 C 
HETATM    9  O   LIG     1      -1.821   1.176   1.608  1.00  0.00    -0.647 OA
HETATM   10  O   LIG     1      -2.397  -0.966   2.153  1.00  0.00    -0.647 OA
ENDBRANCH   7   8
BRANCH   7  11
HETATM   11  C   LIG     1      -1.917  -0.572  -1.152  1.00  0.00     0.197 C 
HETATM   12  O   LIG     1      -2.321   0.761  -1.327  1.00  0.00    -0.220 OA
ENDBRANCH   7  11
ENDBRANCH   1   7
TORSDOF 3
