REMARK  1 active torsions:
REMARK  status: ('A' for Active; 'I' for Inactive)
REMARK    1  A    between atoms: C_8  and  C_9 
ROOT
HETATM    1  C   LIG     1       0.372   0.492  -0.075  1.00  0.00     0.151 C 
HETATM    2  C   LIG     1       0.031   0.650   1.415  1.00  0.00     0.104 C 
HETATM    3  C   LIG     1      -1.455   0.765   1.636  1.00  0.00     0.180 C 
HETATM    4  C   LIG     1      -2.416   0.299   0.596  1.00  0.00     0.083 A 
HETATM    5  C   LIG     1      -3.827   0.428   0.701  1.00  0.00     0.138 A 
HETATM    6  O   LIG     1      -4.452   1.210   1.675  1.00  0.00    -0.190 OA
HETATM    7  C   LIG     1      -4.651  -0.231  -0.220  1.00  0.00     0.055 A 
HETATM    8  C   LIG     1      -4.102  -0.972  -1.271  1.00  0.00     0.135 A 
HETATM    9  O   LIG     1      -4.924  -1.627  -2.186  1.00  0.00    -0.190 OA
HETATM   10  C   LIG     1      -2.717  -1.048  -1.415  1.00  0.00     0.052 A 
HETATM   11  C   LIG     1      -1.879  -0.402  -0.503  1.00  0.00     0.101 A 
HETATM   12  O   LIG     1      -0.495  -0.462  -0.687  1.00  0.00    -0.328 OA
HETATM   13  O   LIG     1      -1.854   1.147   2.767  1.00  0.00    -0.291 OA
ENDROOT
BRANCH   1  14
HETATM   14  C   LIG     1       1.812   0.079  -0.257  1.00  0.00     0.008 A 
HETATM   15  C   LIG     1       2.789   1.040  -0.564  1.00  0.00     0.028 A 
HETATM   16  C   LIG     1       4.135   0.669  -0.704  1.00  0.00     0.156 A 
HETATM   17  C   LIG     1       4.511  -0.673  -0.524  1.00  0.00     0.156 A 
HETATM   18  O   LIG     1       5.097   1.628  -1.017  1.00  0.00    -0.188 OA
HETATM   19  O   LIG     1       5.840  -1.074  -0.658  1.00  0.00    -0.188 OA
HETATM   20  C   LIG     1       3.542  -1.629  -0.204  1.00  0.00     0.029 A 
HETATM   21  C   LIG     1       2.202  -1.257  -0.065  1.00  0.00     0.000 A 
ENDBRANCH   1  14
TORSDOF 1
