REMARK  1 active torsions:
REMARK  status: ('A' for Active; 'I' for Inactive)
REMARK    1  A    between atoms: C_3  and  C_11 
ROOT
HETATM    1 CL   LIG     1       0.654   2.420   1.220  1.00  0.00    -0.081 Cl
HETATM    2  C   LIG     1       1.464   1.032   0.486  1.00  0.00     0.070 A 
HETATM    3  C   LIG     1       0.705  -0.030  -0.049  1.00  0.00     0.023 A 
HETATM    4  C   LIG     1       1.360  -1.128  -0.637  1.00  0.00     0.059 A 
HETATM    5 CL   LIG     1       0.458  -2.481  -1.314  1.00  0.00    -0.082 Cl
HETATM    6  C   LIG     1       2.755  -1.164  -0.685  1.00  0.00     0.024 A 
HETATM    7  C   LIG     1       3.512  -0.117  -0.155  1.00  0.00     0.070 A 
HETATM    8 CL   LIG     1       5.266  -0.216  -0.242  1.00  0.00    -0.081 Cl
HETATM    9  C   LIG     1       2.871   0.986   0.433  1.00  0.00     0.079 A 
HETATM   10 CL   LIG     1       3.829   2.307   1.102  1.00  0.00    -0.081 Cl
ENDROOT
BRANCH   3  11
HETATM   11  C   LIG     1      -0.771   0.008   0.005  1.00  0.00     0.012 A 
HETATM   12  C   LIG     1      -1.487   0.498  -1.099  1.00  0.00     0.001 A 
HETATM   13  C   LIG     1      -2.883   0.543  -1.068  1.00  0.00     0.000 A 
HETATM   14  C   LIG     1      -3.573   0.098   0.063  1.00  0.00     0.001 A 
HETATM   15  C   LIG     1      -2.869  -0.393   1.165  1.00  0.00     0.011 A 
HETATM   16  C   LIG     1      -1.469  -0.442   1.143  1.00  0.00     0.058 A 
HETATM   17 CL   LIG     1      -0.619  -1.073   2.549  1.00  0.00    -0.082 Cl
ENDBRANCH   3  11
TORSDOF 1
