REMARK  1 active torsions:
REMARK  status: ('A' for Active; 'I' for Inactive)
REMARK    1  A    between atoms: C_9  and  C_10 
ROOT
HETATM    1 CL   LIG     1       3.845   2.380   0.591  1.00  0.00    -0.082 Cl
HETATM    2  C   LIG     1       2.888   0.940   0.266  1.00  0.00     0.069 A 
HETATM    3  C   LIG     1       3.497  -0.289  -0.038  1.00  0.00     0.080 A 
HETATM    4 CL   LIG     1       5.256  -0.407  -0.101  1.00  0.00    -0.081 Cl
HETATM    5  C   LIG     1       2.700  -1.421  -0.294  1.00  0.00     0.080 A 
HETATM    6 CL   LIG     1       3.462  -2.965  -0.682  1.00  0.00    -0.081 Cl
HETATM    7  C   LIG     1       1.296  -1.320  -0.243  1.00  0.00     0.069 A 
HETATM    8 CL   LIG     1       0.297  -2.733  -0.597  1.00  0.00    -0.082 Cl
HETATM    9  C   LIG     1       0.693  -0.084   0.064  1.00  0.00     0.013 A 
HETATM   10  C   LIG     1       1.496   1.036   0.317  1.00  0.00     0.013 A 
ENDROOT
BRANCH   9  11
HETATM   11  C   LIG     1      -0.777   0.056   0.140  1.00  0.00     0.012 A 
HETATM   12  C   LIG     1      -1.465  -0.538   1.210  1.00  0.00     0.001 A 
HETATM   13  C   LIG     1      -2.850  -0.411   1.316  1.00  0.00     0.001 A 
HETATM   14  C   LIG     1      -3.562   0.312   0.358  1.00  0.00     0.012 A 
HETATM   15  C   LIG     1      -2.893   0.911  -0.715  1.00  0.00     0.068 A 
HETATM   16 CL   LIG     1      -3.833   1.807  -1.901  1.00  0.00    -0.082 Cl
HETATM   17  C   LIG     1      -1.495   0.787  -0.830  1.00  0.00     0.068 A 
HETATM   18 CL   LIG     1      -0.657   1.519  -2.202  1.00  0.00    -0.082 Cl
ENDBRANCH   9  11
TORSDOF 1
