REMARK  1 active torsions:
REMARK  status: ('A' for Active; 'I' for Inactive)
REMARK    1  A    between atoms: C_1  and  C_2 
ROOT
HETATM    1  C   LIG     1       0.739  -0.068  -0.032  1.00  0.00     0.003 A 
HETATM    2  C   LIG     1       1.387  -0.284  -1.260  1.00  0.00     0.021 A 
HETATM    3  C   LIG     1       2.778  -0.409  -1.297  1.00  0.00     0.099 A 
HETATM    4  N   LIG     1       3.502  -0.323  -0.151  1.00  0.00    -0.242 NA
HETATM    5  C   LIG     1       2.906  -0.115   1.053  1.00  0.00     0.099 A 
HETATM    6  C   LIG     1       1.518   0.016   1.135  1.00  0.00     0.021 A 
ENDROOT
BRANCH   1   7
HETATM    7  C   LIG     1      -0.739   0.068   0.032  1.00  0.00     0.003 A 
HETATM    8  C   LIG     1      -1.569  -0.741  -0.764  1.00  0.00     0.021 A 
HETATM    9  C   LIG     1      -2.956  -0.596  -0.688  1.00  0.00     0.099 A 
HETATM   10  N   LIG     1      -3.502   0.323   0.151  1.00  0.00    -0.242 NA
HETATM   11  C   LIG     1      -2.728   1.121   0.932  1.00  0.00     0.099 A 
HETATM   12  C   LIG     1      -1.336   1.009   0.889  1.00  0.00     0.021 A 
ENDBRANCH   1   7
TORSDOF 1
