REMARK  1 active torsions:
REMARK  status: ('A' for Active; 'I' for Inactive)
REMARK    1  A    between atoms: C_7  and  C_11 
ROOT
HETATM    1 CL   LIG     1       0.741   2.435   1.195  1.00  0.00    -0.082 Cl
HETATM    2  C   LIG     1       1.480   1.051   0.383  1.00  0.00     0.069 A 
HETATM    3  C   LIG     1       2.876   1.001   0.204  1.00  0.00     0.080 A 
HETATM    4 CL   LIG     1       3.885   2.338   0.761  1.00  0.00    -0.081 Cl
HETATM    5  C   LIG     1       3.467  -0.116  -0.416  1.00  0.00     0.080 A 
HETATM    6 CL   LIG     1       5.215  -0.185  -0.644  1.00  0.00    -0.081 Cl
HETATM    7  C   LIG     1       0.678  -0.017  -0.067  1.00  0.00     0.013 A 
HETATM    8  C   LIG     1       1.277  -1.128  -0.672  1.00  0.00     0.013 A 
HETATM    9  C   LIG     1       2.661  -1.181  -0.850  1.00  0.00     0.069 A 
HETATM   10 CL   LIG     1       3.358  -2.599  -1.624  1.00  0.00    -0.082 Cl
ENDROOT
BRANCH   7  11
HETATM   11  C   LIG     1      -0.790   0.003   0.096  1.00  0.00     0.011 A 
HETATM   12  C   LIG     1      -1.381  -0.809   1.078  1.00  0.00     0.001 A 
HETATM   13  C   LIG     1      -2.768  -0.807   1.252  1.00  0.00     0.000 A 
HETATM   14  C   LIG     1      -3.574  -0.000   0.445  1.00  0.00     0.001 A 
HETATM   15  C   LIG     1      -2.995   0.803  -0.541  1.00  0.00     0.011 A 
HETATM   16  C   LIG     1      -1.607   0.808  -0.724  1.00  0.00     0.058 A 
HETATM   17 CL   LIG     1      -0.925   1.808  -2.002  1.00  0.00    -0.082 Cl
ENDBRANCH   7  11
TORSDOF 1
