REMARK  4 active torsions:
REMARK  status: ('A' for Active; 'I' for Inactive)
REMARK       I    between atoms: C_2  and  N_3 
REMARK       I    between atoms: C_2  and  N_12 
REMARK    1  A    between atoms: N_3  and  C_4 
REMARK    2  A    between atoms: N_12  and  C_14 
REMARK    3  A    between atoms: C_14  and  C_15 
REMARK    4  A    between atoms: C_15  and  C_16 
ROOT
HETATM    1  O   LIG     1       0.217   0.310   1.457  1.00  0.00    -0.245 OA
HETATM    2  C   LIG     1       0.345  -0.672   0.676  1.00  0.00     0.346 C 
HETATM    3  N   LIG     1       1.660  -1.075   0.254  1.00  0.00    -0.193 NA
HETATM    4  N   LIG     1      -0.827  -1.398   0.243  1.00  0.00    -0.299 N 
HETATM    5  C   LIG     1      -0.712  -2.466  -0.754  1.00  0.00     0.130 C 
ENDROOT
BRANCH   3   6
HETATM    6  C   LIG     1       2.812  -0.215   0.303  1.00  0.00     0.087 A 
HETATM    7  C   LIG     1       4.082  -0.775   0.504  1.00  0.00     0.020 A 
HETATM    8  C   LIG     1       5.217   0.039   0.535  1.00  0.00     0.014 A 
HETATM    9  C   LIG     1       5.101   1.421   0.352  1.00  0.00     0.068 A 
HETATM   10  C   LIG     1       3.836   1.990   0.127  1.00  0.00     0.070 A 
HETATM   11 CL   LIG     1       6.553   2.412   0.397  1.00  0.00    -0.082 Cl
HETATM   12  C   LIG     1       2.700   1.172   0.097  1.00  0.00     0.032 A 
HETATM   13 CL   LIG     1       3.648   3.719  -0.131  1.00  0.00    -0.081 Cl
ENDBRANCH   3   6
BRANCH   4  14
HETATM   14  C   LIG     1      -2.157  -1.013   0.736  1.00  0.00     0.106 C 
BRANCH  14  15
HETATM   15  C   LIG     1      -2.705   0.164  -0.078  1.00  0.00     0.024 C 
BRANCH  15  16
HETATM   16  C   LIG     1      -4.095   0.578   0.417  1.00  0.00     0.002 C 
HETATM   17  C   LIG     1      -4.642   1.750  -0.392  1.00  0.00     0.000 C 
ENDBRANCH  15  16
ENDBRANCH  14  15
ENDBRANCH   4  14
TORSDOF 4
