REMARK  1 active torsions:
REMARK  status: ('A' for Active; 'I' for Inactive)
REMARK    1  A    between atoms: C_7  and  C_8 
ROOT
HETATM    1 CL   LIG     1       3.964   2.426   0.035  1.00  0.00    -0.082 Cl
HETATM    2  C   LIG     1       2.939   0.997   0.016  1.00  0.00     0.068 A 
HETATM    3  C   LIG     1       3.546  -0.262   0.004  1.00  0.00     0.013 A 
HETATM    4  C   LIG     1       2.768  -1.419  -0.007  1.00  0.00     0.012 A 
HETATM    5  C   LIG     1       1.373  -1.332  -0.009  1.00  0.00     0.059 A 
HETATM    6 CL   LIG     1       0.443  -2.827  -0.058  1.00  0.00    -0.082 Cl
HETATM    7  C   LIG     1       0.744  -0.069   0.002  1.00  0.00     0.022 A 
HETATM    8  C   LIG     1       1.536   1.102   0.015  1.00  0.00     0.069 A 
HETATM    9 CL   LIG     1       0.780   2.697   0.066  1.00  0.00    -0.082 Cl
ENDROOT
BRANCH   7  10
HETATM   10  C   LIG     1      -0.731   0.026  -0.001  1.00  0.00     0.002 A 
HETATM   11  C   LIG     1      -1.407   0.497  -1.137  1.00  0.00     0.000 A 
HETATM   12  C   LIG     1      -2.803   0.585  -1.138  1.00  0.00     0.000 A 
HETATM   13  C   LIG     1      -3.530   0.203  -0.007  1.00  0.00     0.000 A 
HETATM   14  C   LIG     1      -2.862  -0.267   1.127  1.00  0.00     0.000 A 
HETATM   15  C   LIG     1      -1.467  -0.357   1.133  1.00  0.00     0.000 A 
ENDBRANCH   7  10
TORSDOF 1
