REMARK  0 active torsions:
REMARK  status: ('A' for Active; 'I' for Inactive)
ROOT
HETATM    1 BR   LIG     1       1.905  -0.329  -0.048  1.00  0.00    -0.047 Br
HETATM    2  C   LIG     1       0.000   0.000   0.000  1.00  0.00     0.190 C 
HETATM    3 BR   LIG     1      -0.338   1.877  -0.316  1.00  0.00    -0.047 Br
HETATM    4 BR   LIG     1      -0.696  -0.498   1.734  1.00  0.00    -0.047 Br
HETATM    5 BR   LIG     1      -0.870  -1.051  -1.370  1.00  0.00    -0.047 Br
ENDROOT
TORSDOF 0
