REMARK  4 active torsions:
REMARK  status: ('A' for Active; 'I' for Inactive)
REMARK    1  A    between atoms: C_2  and  C_3 
REMARK    2  A    between atoms: C_3  and  C_6 
REMARK    3  A    between atoms: C_6  and  C_7 
REMARK    4  A    between atoms: C_7  and  C_8 
ROOT
HETATM    1  C   LIG     1      -0.980  -0.546  -0.098  1.00  0.00     0.127 C 
HETATM    2  C   LIG     1      -1.770  -0.686   1.229  1.00  0.00     0.033 C 
HETATM    3  O   LIG     1      -0.428  -1.792  -0.462  1.00  0.00    -0.226 OA
ENDROOT
BRANCH   1   4
HETATM    4  C   LIG     1      -1.952  -0.154  -1.246  1.00  0.00     0.030 C 
HETATM    5  C   LIG     1      -2.665   1.193  -1.080  1.00  0.00     0.003 C 
ENDBRANCH   1   4
BRANCH   1   6
HETATM    6  C   LIG     1       0.151   0.523   0.032  1.00  0.00     0.030 C 
BRANCH   6   7
HETATM    7  C   LIG     1       1.365   0.106   0.895  1.00  0.00     0.003 C 
BRANCH   7   8
HETATM    8  C   LIG     1       2.490  -0.568   0.087  1.00  0.00     0.000 C 
HETATM    9  C   LIG     1       3.360   0.445  -0.659  1.00  0.00     0.000 C 
ENDBRANCH   7   8
ENDBRANCH   6   7
ENDBRANCH   1   6
TORSDOF 4
