REMARK  1 active torsions:
REMARK  status: ('A' for Active; 'I' for Inactive)
REMARK    1  A    between atoms: C_3  and  C_4 
ROOT
HETATM    1 CL   LIG     1       1.979   0.031  -1.855  1.00  0.00    -0.069 Cl
HETATM    2  C   LIG     1       1.611   0.754  -0.292  1.00  0.00     0.126 C 
HETATM    3  C   LIG     1       0.533   0.390   0.423  1.00  0.00     0.081 C 
HETATM    4 CL   LIG     1       0.231   1.123   2.001  1.00  0.00    -0.081 Cl
HETATM    5 CL   LIG     1       2.703   2.014   0.269  1.00  0.00    -0.069 Cl
ENDROOT
BRANCH   3   6
HETATM    6  C   LIG     1      -0.340  -0.715  -0.031  1.00  0.00     0.036 C 
HETATM    7  C   LIG     1      -1.678  -0.678   0.003  1.00  0.00     0.116 C 
HETATM    8 CL   LIG     1      -2.590   0.747   0.484  1.00  0.00    -0.070 Cl
HETATM    9 CL   LIG     1      -2.585  -2.069  -0.561  1.00  0.00    -0.070 Cl
ENDBRANCH   3   6
TORSDOF 1
