REMARK  0 active torsions:
REMARK  status: ('A' for Active; 'I' for Inactive)
ROOT
HETATM    1  S   LIG     1       2.303   2.445   0.068  1.00  0.00    -0.037 SA
HETATM    2  C   LIG     1       1.403   1.075   0.034  1.00  0.00     0.223 A 
HETATM    3  N   LIG     1       0.042   1.153   0.053  1.00  0.00    -0.222 NA
HETATM    4  C   LIG     1      -0.724   0.026   0.034  1.00  0.00     0.067 A 
HETATM    5  C   LIG     1      -2.220   0.130   0.017  1.00  0.00     0.052 C 
HETATM    6  C   LIG     1      -0.107  -1.227  -0.036  1.00  0.00     0.077 A 
HETATM    7  N   LIG     1       2.016  -0.141  -0.017  1.00  0.00    -0.179 NA
HETATM    8  C   LIG     1       1.286  -1.287  -0.056  1.00  0.00     0.282 A 
HETATM    9  O   LIG     1       1.866  -2.404  -0.111  1.00  0.00    -0.265 OA
ENDROOT
TORSDOF 0
