REMARK  1 active torsions:
REMARK  status: ('A' for Active; 'I' for Inactive)
REMARK    1  A    between atoms: C_7  and  C_8 
ROOT
HETATM    1  O   LIG     1       4.226  -0.051   1.401  1.00  0.00    -0.244 OA
HETATM    2  C   LIG     1       3.116  -0.209   0.824  1.00  0.00     0.355 C 
HETATM    3  N   LIG     1       2.570   0.829  -0.003  1.00  0.00    -0.248 N 
HETATM    4  C   LIG     1       3.290   2.099  -0.152  1.00  0.00     0.138 C 
HETATM    5  N   LIG     1       2.404  -1.428   1.007  1.00  0.00    -0.156 NA
HETATM    6  C   LIG     1       1.158  -1.671   0.356  1.00  0.00     0.271 C 
HETATM    7  C   LIG     1       0.586  -0.711  -0.672  1.00  0.00     0.159 C 
HETATM    8  C   LIG     1       0.663  -1.425  -2.043  1.00  0.00     0.023 C 
HETATM    9  C   LIG     1       1.391   0.576  -0.792  1.00  0.00     0.252 C 
HETATM   10  O   LIG     1       0.997   1.451  -1.613  1.00  0.00    -0.271 OA
HETATM   11  O   LIG     1       0.530  -2.732   0.624  1.00  0.00    -0.269 OA
ENDROOT
BRANCH   7  12
HETATM   12  C   LIG     1      -0.842  -0.330  -0.230  1.00  0.00    -0.032 C 
HETATM   13  C   LIG     1      -1.004   0.288   1.157  1.00  0.00     0.023 C 
HETATM   14  C   LIG     1      -2.315   1.060   1.322  1.00  0.00     0.005 C 
HETATM   15  C   LIG     1      -3.484   0.192   0.870  1.00  0.00     0.005 C 
HETATM   16  C   LIG     1      -3.336  -0.154  -0.613  1.00  0.00     0.025 C 
HETATM   17  C   LIG     1      -1.942  -0.607  -0.979  1.00  0.00    -0.034 C 
ENDBRANCH   7  12
TORSDOF 1
