REMARK  0 active torsions:
REMARK  status: ('A' for Active; 'I' for Inactive)
ROOT
HETATM    1 CL   LIG     1       1.764  -0.222  -0.026  1.00  0.00    -0.067 Cl
HETATM    2  C   LIG     1       0.000   0.000   0.000  1.00  0.00     0.267 C 
HETATM    3 CL   LIG     1      -0.382   1.731  -0.141  1.00  0.00    -0.067 Cl
HETATM    4 CL   LIG     1      -0.654  -0.628   1.529  1.00  0.00    -0.067 Cl
HETATM    5 CL   LIG     1      -0.728  -0.881  -1.362  1.00  0.00    -0.067 Cl
ENDROOT
TORSDOF 0
