REMARK  0 active torsions:
REMARK  status: ('A' for Active; 'I' for Inactive)
ROOT
HETATM    1  C   LIG     1       5.191   0.861  -0.238  1.00  0.00     0.030 C 
HETATM    2  C   LIG     1       3.700   1.023  -0.180  1.00  0.00    -0.026 A 
HETATM    3  C   LIG     1       3.131   2.318  -0.212  1.00  0.00    -0.004 A 
HETATM    4  C   LIG     1       1.730   2.493  -0.159  1.00  0.00    -0.000 A 
HETATM    5  C   LIG     1       0.889   1.370  -0.073  1.00  0.00    -0.001 A 
HETATM    6  C   LIG     1      -0.512   1.441  -0.015  1.00  0.00    -0.000 A 
HETATM    7  C   LIG     1      -1.298   0.247   0.071  1.00  0.00    -0.000 A 
HETATM    8  C   LIG     1      -0.620  -1.018   0.097  1.00  0.00    -0.004 A 
HETATM    9  C   LIG     1      -1.346  -2.210   0.180  1.00  0.00    -0.000 A 
HETATM   10  C   LIG     1      -2.733  -2.187   0.239  1.00  0.00    -0.000 A 
HETATM   11  C   LIG     1      -3.430  -0.974   0.217  1.00  0.00    -0.000 A 
HETATM   12  C   LIG     1      -2.726   0.262   0.132  1.00  0.00    -0.000 A 
HETATM   13  C   LIG     1      -3.488   1.457   0.113  1.00  0.00    -0.000 A 
HETATM   14  C   LIG     1      -4.883   1.420   0.175  1.00  0.00     0.000 A 
HETATM   15  C   LIG     1      -5.553   0.203   0.258  1.00  0.00     0.000 A 
HETATM   16  C   LIG     1      -4.833  -0.989   0.278  1.00  0.00     0.000 A 
HETATM   17  C   LIG     1       2.830  -0.078  -0.094  1.00  0.00    -0.026 A 
HETATM   18  C   LIG     1       1.483   0.118  -0.044  1.00  0.00    -0.008 A 
HETATM   19  C   LIG     1       0.784  -1.041   0.037  1.00  0.00    -0.022 A 
HETATM   20  C   LIG     1       1.731  -2.206   0.046  1.00  0.00     0.031 A 
HETATM   21  C   LIG     1       3.133  -1.545  -0.043  1.00  0.00     0.030 A 
ENDROOT
TORSDOF 0
