REMARK  4 active torsions:
REMARK  status: ('A' for Active; 'I' for Inactive)
REMARK    1  A    between atoms: C_3  and  C_4 
REMARK    2  A    between atoms: C_4  and  C_5 
REMARK    3  A    between atoms: C_5  and  O_6 
REMARK    4  A    between atoms: O_6  and  C_7 
ROOT
HETATM    1  C   LIG     1       1.143  -1.440   0.185  1.00  0.00     0.000 C 
HETATM    2  C   LIG     1       1.133  -0.158  -0.717  1.00  0.00     0.007 C 
HETATM    3  C   LIG     1       2.574   0.368  -0.949  1.00  0.00     0.060 C 
HETATM    4  C   LIG     1       0.318  -0.402  -2.005  1.00  0.00     0.000 C 
HETATM    5  C   LIG     1      -1.166  -0.661  -1.667  1.00  0.00     0.000 C 
HETATM    6  C   LIG     1       0.525   1.065  -0.014  1.00  0.00     0.000 C 
HETATM    7  C   LIG     1       1.566   1.465   1.026  1.00  0.00     0.000 C 
HETATM    8  C   LIG     1       2.911   1.103   0.371  1.00  0.00     0.007 C 
HETATM    9  C   LIG     1      -0.939   0.870   0.440  1.00  0.00     0.001 C 
HETATM   10  C   LIG     1      -1.472   2.173   1.110  1.00  0.00     0.004 C 
HETATM   11  C   LIG     1      -2.968   2.437   0.873  1.00  0.00     0.022 C 
HETATM   12  C   LIG     1      -3.717   1.140   0.742  1.00  0.00    -0.042 C 
HETATM   13  C   LIG     1      -4.684   0.836   1.624  1.00  0.00     0.029 C 
HETATM   14  C   LIG     1      -5.335  -0.481   1.631  1.00  0.00     0.172 C 
HETATM   15  O   LIG     1      -6.274  -0.704   2.439  1.00  0.00    -0.291 OA
HETATM   16  C   LIG     1      -1.811   0.469  -0.799  1.00  0.00     0.004 C 
HETATM   17  C   LIG     1      -3.313   0.181  -0.382  1.00  0.00     0.016 C 
HETATM   18  C   LIG     1      -3.512  -1.289   0.106  1.00  0.00     0.012 C 
HETATM   19  C   LIG     1      -4.915  -1.552   0.673  1.00  0.00     0.070 C 
HETATM   20  C   LIG     1      -4.234   0.454  -1.595  1.00  0.00     0.004 C 
ENDROOT
BRANCH   3  21
HETATM   21  C   LIG     1       3.636  -0.636  -1.370  1.00  0.00     0.181 C 
HETATM   22  O   LIG     1       3.326  -1.757  -1.742  1.00  0.00    -0.293 OA
BRANCH  21  23
HETATM   23  C   LIG     1       5.087  -0.237  -1.411  1.00  0.00     0.216 C 
BRANCH  23  24
HETATM   24  O   LIG     1       5.683  -0.370  -0.123  1.00  0.00    -0.294 OA
BRANCH  24  25
HETATM   25  C   LIG     1       5.912  -1.602   0.499  1.00  0.00     0.273 C 
HETATM   26  C   LIG     1       6.419  -1.630   1.901  1.00  0.00     0.106 C 
HETATM   27  O   LIG     1       5.655  -2.685  -0.096  1.00  0.00    -0.264 OA
ENDBRANCH  24  25
ENDBRANCH  23  24
ENDBRANCH  21  23
ENDBRANCH   3  21
TORSDOF 4
