REMARK  4 active torsions:
REMARK  status: ('A' for Active; 'I' for Inactive)
REMARK    1  A    between atoms: C_1  and  C_23 
REMARK    2  A    between atoms: C_8  and  C_9 
REMARK    3  A    between atoms: C_9  and  C_10 
REMARK    4  A    between atoms: C_17  and  O_20 
ROOT
HETATM    1  C   LIG     1       1.156  -1.346  -0.432  1.00  0.00     0.013 A 
HETATM    2  C   LIG     1       0.518  -2.601  -0.331  1.00  0.00     0.019 A 
HETATM    3  C   LIG     1       1.210  -3.709   0.150  1.00  0.00     0.099 A 
HETATM    4  N   LIG     1       2.512  -3.601   0.504  1.00  0.00    -0.244 NA
HETATM    5  C   LIG     1       3.190  -2.431   0.390  1.00  0.00     0.081 A 
HETATM    6  C   LIG     1       2.540  -1.270  -0.102  1.00  0.00     0.018 A 
HETATM    7  C   LIG     1       3.304  -0.089  -0.256  1.00  0.00     0.025 A 
HETATM    8  C   LIG     1       4.665  -0.057   0.106  1.00  0.00     0.094 A 
HETATM    9  C   LIG     1       5.270  -1.211   0.607  1.00  0.00     0.026 A 
HETATM   10  C   LIG     1       4.541  -2.391   0.744  1.00  0.00     0.021 A 
ENDROOT
BRANCH   1  11
HETATM   11  C   LIG     1       0.385  -0.117  -0.928  1.00  0.00     0.206 C 
HETATM   12  O   LIG     1       0.712   0.135  -2.272  1.00  0.00    -0.216 OA
BRANCH  11  13
HETATM   13  C   LIG     1      -1.163  -0.171  -0.750  1.00  0.00     0.254 C 
HETATM   14  N   LIG     1      -1.558  -0.592   0.628  1.00  0.00     0.138 N 
HETATM   15  C   LIG     1      -3.018  -0.856   0.646  1.00  0.00     0.255 C 
HETATM   16  C   LIG     1      -1.265   0.469   1.626  1.00  0.00     0.250 C 
HETATM   17  C   LIG     1      -3.821   0.412   0.209  1.00  0.00     0.056 C 
HETATM   18  C   LIG     1      -2.824   1.583  -0.007  1.00  0.00     0.010 C 
HETATM   19  C   LIG     1      -1.994   1.788   1.275  1.00  0.00     0.036 C 
HETATM   20  C   LIG     1      -1.845   1.180  -1.127  1.00  0.00     0.037 C 
BRANCH  17  21
HETATM   21  C   LIG     1      -4.906   0.772   1.202  1.00  0.00    -0.024 C 
HETATM   22  C   LIG     1      -5.826   1.701   0.925  1.00  0.00    -0.005 C 
ENDBRANCH  17  21
ENDBRANCH  11  13
ENDBRANCH   1  11
BRANCH   8  23
HETATM   23  O   LIG     1       5.451   1.099  -0.018  1.00  0.00    -0.328 OA
HETATM   24  C   LIG     1       4.971   2.359  -0.477  1.00  0.00     0.181 C 
ENDBRANCH   8  23
TORSDOF 4
