REMARK  4 active torsions:
REMARK  status: ('A' for Active; 'I' for Inactive)
REMARK    1  A    between atoms: C_5  and  C_6 
REMARK    2  A    between atoms: C_6  and  C_7 
REMARK    3  A    between atoms: C_9  and  C_10 
REMARK    4  A    between atoms: C_9  and  C_12 
ROOT
HETATM    1  C   LIG     1       0.433  -1.161   0.522  1.00  0.00    -0.026 C 
HETATM    2  C   LIG     1      -0.861  -1.052   0.106  1.00  0.00    -0.026 C 
ENDROOT
BRANCH   1   3
HETATM    3  C   LIG     1       1.402  -0.063   0.280  1.00  0.00    -0.004 A 
HETATM    4  C   LIG     1       2.018   0.586   1.362  1.00  0.00     0.002 A 
HETATM    5  C   LIG     1       2.925   1.625   1.136  1.00  0.00     0.027 A 
HETATM    6  C   LIG     1       3.228   2.023  -0.174  1.00  0.00     0.131 A 
HETATM    7  O   LIG     1       4.128   3.059  -0.411  1.00  0.00    -0.190 OA
HETATM    8  C   LIG     1       2.622   1.374  -1.254  1.00  0.00     0.027 A 
HETATM    9  C   LIG     1       1.715   0.334  -1.031  1.00  0.00     0.002 A 
ENDBRANCH   1   3
BRANCH   1  10
HETATM   10  C   LIG     1       0.992  -2.427   1.140  1.00  0.00     0.026 C 
HETATM   11  C   LIG     1       1.565  -3.348   0.066  1.00  0.00     0.005 C 
ENDBRANCH   1  10
BRANCH   2  12
HETATM   12  C   LIG     1      -1.873  -2.168   0.271  1.00  0.00     0.026 C 
HETATM   13  C   LIG     1      -2.598  -2.051   1.609  1.00  0.00     0.005 C 
ENDBRANCH   2  12
BRANCH   2  14
HETATM   14  C   LIG     1      -1.379   0.231  -0.434  1.00  0.00    -0.004 A 
HETATM   15  C   LIG     1      -1.397   1.384   0.368  1.00  0.00     0.002 A 
HETATM   16  C   LIG     1      -1.877   2.592  -0.147  1.00  0.00     0.027 A 
HETATM   17  C   LIG     1      -2.349   2.657  -1.465  1.00  0.00     0.131 A 
HETATM   18  C   LIG     1      -2.339   1.508  -2.263  1.00  0.00     0.027 A 
HETATM   19  O   LIG     1      -2.827   3.855  -1.990  1.00  0.00    -0.190 OA
HETATM   20  C   LIG     1      -1.859   0.299  -1.751  1.00  0.00     0.002 A 
ENDBRANCH   2  14
TORSDOF 4
