REMARK  4 active torsions:
REMARK  status: ('A' for Active; 'I' for Inactive)
REMARK    1  A    between atoms: C_2  and  CA_3 
REMARK    2  A    between atoms: CA_3  and  CB_5 
REMARK    3  A    between atoms: CB_5  and  CG_6 
REMARK    4  A    between atoms: CG_6  and  CD_7 
ROOT
ATOM      1  CA  GLN A   1      -1.495  -0.282  -0.022  1.00  0.00     0.388 C 
ATOM      2  N   GLN A   1      -1.697  -0.948   1.270  1.00  0.00     0.628 N 
ENDROOT
BRANCH   1   3
ATOM      3  C   GLN A   1      -2.372  -0.927  -1.061  1.00  0.00     0.224 C 
ATOM      4  O   GLN A   1      -3.064  -0.150  -1.986  1.00  0.00    -0.646 OA
ATOM      5  OXT GLN A   1      -2.451  -2.183  -1.132  1.00  0.00    -0.646 OA
ENDBRANCH   1   3
BRANCH   1   6
ATOM      6  CB  GLN A   1      -0.020  -0.330  -0.479  1.00  0.00     0.060 C 
BRANCH   6   7
ATOM      7  CG  GLN A   1       0.911   0.462   0.456  1.00  0.00     0.087 C 
BRANCH   7   8
ATOM      8  CD  GLN A   1       2.331   0.517  -0.039  1.00  0.00     0.243 C 
ATOM      9  NE2 GLN A   1       3.311   1.233   0.713  1.00  0.00    -0.061 NA
ATOM     10  OE1 GLN A   1       2.672  -0.061  -1.107  1.00  0.00    -0.276 OA
ENDBRANCH   7   8
ENDBRANCH   6   7
ENDBRANCH   1   6
TORSDOF 4
