REMARK  2 active torsions:
REMARK  status: ('A' for Active; 'I' for Inactive)
REMARK    1  A    between atoms: C_2  and  C_5 
REMARK    2  A    between atoms: C_2  and  C_3 
ROOT
HETATM    1  O   LIG     1       0.325  -1.969  -0.057  1.00  0.00    -0.218 OA
HETATM    2  C   LIG     1       0.096  -0.631  -0.421  1.00  0.00     0.218 C 
ENDROOT
BRANCH   2   3
HETATM    3  C   LIG     1       1.255   0.255   0.065  1.00  0.00     0.218 C 
HETATM    4  O   LIG     1       1.155   1.536  -0.494  1.00  0.00    -0.218 OA
ENDBRANCH   2   3
BRANCH   2   5
HETATM    5  C   LIG     1      -1.266  -0.163   0.119  1.00  0.00     0.218 C 
HETATM    6  O   LIG     1      -1.609   1.078  -0.435  1.00  0.00    -0.218 OA
ENDBRANCH   2   5
TORSDOF 2
