REMARK  8 active torsions:
REMARK  status: ('A' for Active; 'I' for Inactive)
REMARK    1  A    between atoms: C_2  and  C_3 
REMARK       I    between atoms: C_2  and  N_5 
REMARK    2  A    between atoms: N_5  and  C_6 
REMARK    3  A    between atoms: N_5  and  C_12 
REMARK    4  A    between atoms: C_12  and  C_13 
REMARK    5  A    between atoms: C_13  and  O_14 
REMARK    6  A    between atoms: N_18  and  C_19 
REMARK    7  A    between atoms: C_19  and  C_20 
REMARK    8  A    between atoms: C_20  and  C_21 
ROOT
HETATM    1  C   LIG     1      -0.858   0.026  -0.618  1.00  0.00     0.102 C 
HETATM    2  C   LIG     1      -0.327  -0.919   0.502  1.00  0.00     0.059 C 
HETATM    3  C   LIG     1       1.160  -1.267   0.384  1.00  0.00     0.252 C 
HETATM    4  N   LIG     1       1.983  -0.041   0.360  1.00  0.00     0.137 N 
HETATM    5  C   LIG     1       1.644   0.755  -0.837  1.00  0.00     0.252 C 
HETATM    6  C   LIG     1       0.170   1.190  -0.812  1.00  0.00     0.059 C 
ENDROOT
BRANCH   1   7
HETATM    7  N   LIG     1      -2.181   0.571  -0.181  1.00  0.00    -0.300 N 
HETATM    8  C   LIG     1      -2.570   1.945  -0.405  1.00  0.00     0.237 C 
HETATM    9  O   LIG     1      -2.481   2.446  -1.561  1.00  0.00    -0.272 OA
BRANCH   8  10
HETATM   10  C   LIG     1      -3.158   2.764   0.718  1.00  0.00     0.088 C 
HETATM   11  C   LIG     1      -4.684   2.842   0.607  1.00  0.00     0.010 C 
ENDBRANCH   8  10
BRANCH   7  12
HETATM   12  C   LIG     1      -3.247  -0.318   0.205  1.00  0.00     0.062 A 
HETATM   13  C   LIG     1      -4.199  -0.723  -0.747  1.00  0.00     0.017 A 
HETATM   14  C   LIG     1      -5.269  -1.536  -0.368  1.00  0.00     0.002 A 
HETATM   15  C   LIG     1      -5.405  -1.933   0.967  1.00  0.00     0.000 A 
HETATM   16  C   LIG     1      -4.470  -1.520   1.923  1.00  0.00     0.002 A 
HETATM   17  C   LIG     1      -3.399  -0.707   1.546  1.00  0.00     0.017 A 
ENDBRANCH   7  12
ENDBRANCH   1   7
BRANCH   1  18
HETATM   18  C   LIG     1      -1.089  -0.749  -1.951  1.00  0.00     0.163 C 
BRANCH  18  19
HETATM   19  O   LIG     1       0.118  -1.203  -2.523  1.00  0.00    -0.350 OA
HETATM   20  C   LIG     1      -0.157  -2.001  -3.654  1.00  0.00     0.174 C 
ENDBRANCH  18  19
ENDBRANCH   1  18
BRANCH   4  21
HETATM   21  C   LIG     1       3.421  -0.398   0.373  1.00  0.00     0.255 C 
BRANCH  21  22
HETATM   22  C   LIG     1       4.278   0.784   0.848  1.00  0.00     0.068 C 
BRANCH  22  23
HETATM   23  C   LIG     1       5.701   0.365   1.065  1.00  0.00     0.009 A 
HETATM   24  C   LIG     1       6.403   0.456   2.264  1.00  0.00     0.003 A 
HETATM   25  C   LIG     1       7.734   0.034   2.156  1.00  0.00     0.007 A 
HETATM   26  C   LIG     1       8.082  -0.387   0.875  1.00  0.00     0.035 A 
HETATM   27  S   LIG     1       6.735  -0.228  -0.122  1.00  0.00    -0.091 SA
ENDBRANCH  22  23
ENDBRANCH  21  22
ENDBRANCH   4  21
TORSDOF 8
