REMARK  5 active torsions:
REMARK  status: ('A' for Active; 'I' for Inactive)
REMARK    1  A    between atoms: C_2  and  C_3 
REMARK    2  A    between atoms: C_3  and  C_11 
REMARK    3  A    between atoms: C_3  and  C_4 
REMARK    4  A    between atoms: C_11  and  C_19 
REMARK    5  A    between atoms: C_11  and  C_12 
ROOT
HETATM    1  C   LIG     1      -0.665  -0.915  -0.856  1.00  0.00     0.041 C 
ENDROOT
BRANCH   1   2
HETATM    2  C   LIG     1      -1.507  -2.222  -0.928  1.00  0.00     0.008 C 
HETATM    3  C   LIG     1      -1.100  -3.129  -2.093  1.00  0.00     0.001 C 
ENDBRANCH   1   2
BRANCH   1   4
HETATM    4  C   LIG     1       0.859  -1.148  -0.501  1.00  0.00    -0.040 C 
BRANCH   4   5
HETATM    5  C   LIG     1       1.162  -2.251   0.567  1.00  0.00     0.022 C 
HETATM    6  C   LIG     1       0.515  -2.095   1.949  1.00  0.00     0.005 C 
ENDBRANCH   4   5
BRANCH   4   7
HETATM    7  C   LIG     1       1.671   0.151  -0.386  1.00  0.00    -0.007 A 
HETATM    8  C   LIG     1       1.613   1.090  -1.438  1.00  0.00     0.002 A 
HETATM    9  C   LIG     1       2.332   2.286  -1.377  1.00  0.00     0.027 A 
HETATM   10  C   LIG     1       3.143   2.564  -0.277  1.00  0.00     0.131 A 
HETATM   11  C   LIG     1       3.243   1.633   0.760  1.00  0.00     0.027 A 
HETATM   12  O   LIG     1       3.851   3.763  -0.228  1.00  0.00    -0.190 OA
HETATM   13  C   LIG     1       2.526   0.434   0.704  1.00  0.00     0.002 A 
ENDBRANCH   4   7
ENDBRANCH   1   4
BRANCH   1  14
HETATM   14  C   LIG     1      -1.421   0.183  -0.092  1.00  0.00    -0.019 A 
HETATM   15  C   LIG     1      -0.977   0.754   1.119  1.00  0.00    -0.002 A 
HETATM   16  C   LIG     1      -1.709   1.766   1.748  1.00  0.00     0.027 A 
HETATM   17  C   LIG     1      -2.891   2.239   1.178  1.00  0.00     0.131 A 
HETATM   18  C   LIG     1      -3.339   1.700  -0.031  1.00  0.00     0.027 A 
HETATM   19  O   LIG     1      -3.610   3.247   1.818  1.00  0.00    -0.190 OA
HETATM   20  C   LIG     1      -2.608   0.690  -0.662  1.00  0.00    -0.002 A 
ENDBRANCH   1  14
TORSDOF 5
