REMARK  2 active torsions:
REMARK  status: ('A' for Active; 'I' for Inactive)
REMARK    1  A    between atoms: C_2  and  C_4 
REMARK    2  A    between atoms: C_4  and  C_6 
ROOT
HETATM    1  C   LIG     1       0.191  -0.433   0.150  1.00  0.00     0.030 C 
HETATM    2  C   LIG     1       0.700  -1.586  -0.735  1.00  0.00     0.003 C 
ENDROOT
BRANCH   1   3
HETATM    3  C   LIG     1      -1.362  -0.420   0.149  1.00  0.00     0.152 C 
HETATM    4  C   LIG     1      -1.944   0.500   1.231  1.00  0.00     0.036 C 
HETATM    5  O   LIG     1      -1.843  -0.038  -1.115  1.00  0.00    -0.224 OA
ENDBRANCH   1   3
BRANCH   1   6
HETATM    6  C   LIG     1       0.789   0.925  -0.301  1.00  0.00     0.003 C 
HETATM    7  C   LIG     1       2.307   0.998  -0.127  1.00  0.00     0.000 C 
ENDBRANCH   1   6
TORSDOF 2
