REMARK  2 active torsions:
REMARK  status: ('A' for Active; 'I' for Inactive)
REMARK    1  A    between atoms: C_2  and  C_4 
REMARK    2  A    between atoms: C_4  and  C_6 
ROOT
HETATM    1  C   LIG     1       0.155  -0.356   0.405  1.00  0.00     0.152 C 
HETATM    2  O   LIG     1       0.303  -1.751   0.520  1.00  0.00    -0.224 OA
ENDROOT
BRANCH   1   3
HETATM    3  C   LIG     1      -0.974  -0.013  -0.611  1.00  0.00     0.030 C 
HETATM    4  C   LIG     1      -1.253   1.498  -0.679  1.00  0.00     0.003 C 
HETATM    5  C   LIG     1      -2.272  -0.753  -0.250  1.00  0.00     0.003 C 
ENDBRANCH   1   3
BRANCH   1   6
HETATM    6  C   LIG     1       1.509   0.290   0.031  1.00  0.00     0.033 C 
HETATM    7  C   LIG     1       2.620  -0.106   1.003  1.00  0.00     0.003 C 
ENDBRANCH   1   6
TORSDOF 2
