REMARK  1 active torsions:
REMARK  status: ('A' for Active; 'I' for Inactive)
REMARK    1  A    between atoms: C_3  and  C_10 
ROOT
HETATM    1 CL   LIG     1       0.393  -1.210  -2.525  1.00  0.00    -0.082 Cl
HETATM    2  C   LIG     1       1.333  -0.576  -1.179  1.00  0.00     0.059 A 
HETATM    3  C   LIG     1       0.708  -0.026  -0.041  1.00  0.00     0.023 A 
HETATM    4  C   LIG     1       1.500   0.470   1.014  1.00  0.00     0.059 A 
HETATM    5 CL   LIG     1       0.771   1.167   2.458  1.00  0.00    -0.082 Cl
HETATM    6  C   LIG     1       2.895   0.414   0.927  1.00  0.00     0.023 A 
HETATM    7  C   LIG     1       3.509  -0.132  -0.203  1.00  0.00     0.059 A 
HETATM    8 CL   LIG     1       5.259  -0.197  -0.305  1.00  0.00    -0.082 Cl
HETATM    9  C   LIG     1       2.730  -0.625  -1.252  1.00  0.00     0.023 A 
ENDROOT
BRANCH   3  10
HETATM   10  C   LIG     1      -0.768   0.029   0.044  1.00  0.00     0.023 A 
HETATM   11  C   LIG     1      -1.488  -1.043   0.611  1.00  0.00     0.059 A 
HETATM   12  C   LIG     1      -2.884  -0.984   0.688  1.00  0.00     0.011 A 
HETATM   13 CL   LIG     1      -0.667  -2.473   1.230  1.00  0.00    -0.082 Cl
HETATM   14  C   LIG     1      -3.568   0.134   0.207  1.00  0.00     0.002 A 
HETATM   15  C   LIG     1      -2.862   1.199  -0.355  1.00  0.00     0.011 A 
HETATM   16  C   LIG     1      -1.466   1.154  -0.440  1.00  0.00     0.059 A 
HETATM   17 CL   LIG     1      -0.618   2.521  -1.156  1.00  0.00    -0.082 Cl
ENDBRANCH   3  10
TORSDOF 1
