REMARK  2 active torsions:
REMARK  status: ('A' for Active; 'I' for Inactive)
REMARK    1  A    between atoms: O_2  and  C_3 
REMARK    2  A    between atoms: C_12  and  O_13 
ROOT
HETATM    1  C   LIG     1       0.339   0.543  -0.307  1.00  0.00     0.121 A 
HETATM    2  C   LIG     1      -1.060   0.535  -0.164  1.00  0.00     0.086 A 
HETATM    3  C   LIG     1      -2.077   1.525  -0.453  1.00  0.00     0.298 A 
HETATM    4  O   LIG     1      -1.889   2.669  -0.940  1.00  0.00    -0.259 OA
HETATM    5  C   LIG     1      -1.739  -0.594   0.236  1.00  0.00     0.015 A 
HETATM    6  C   LIG     1      -3.218  -0.352   0.265  1.00  0.00     0.179 A 
HETATM    7  O   LIG     1      -3.334   0.999  -0.186  1.00  0.00    -0.293 OA
HETATM    8  C   LIG     1      -1.065  -1.783   0.500  1.00  0.00     0.001 A 
HETATM    9  C   LIG     1       0.329  -1.815   0.344  1.00  0.00     0.026 A 
HETATM   10  C   LIG     1       1.038  -0.656  -0.065  1.00  0.00     0.116 A 
ENDROOT
BRANCH   1  11
HETATM   11  O   LIG     1       1.055   1.684  -0.690  1.00  0.00    -0.326 OA
HETATM   12  C   LIG     1       0.907   2.955  -0.064  1.00  0.00     0.181 C 
ENDBRANCH   1  11
BRANCH  10  13
HETATM   13  O   LIG     1       2.432  -0.658  -0.231  1.00  0.00    -0.326 OA
HETATM   14  C   LIG     1       3.268  -1.791  -0.019  1.00  0.00     0.181 C 
ENDBRANCH  10  13
TORSDOF 2
