REMARK  0 active torsions:
REMARK  status: ('A' for Active; 'I' for Inactive)
ROOT
HETATM    1  O   LIG     1      -0.062   1.764   0.057  1.00  0.00    -0.255 OA
HETATM    2  C   LIG     1      -0.018   0.506   0.016  1.00  0.00     0.341 C 
HETATM    3  N   LIG     1       1.157  -0.177   0.448  1.00  0.00    -0.043 NA
HETATM    4  N   LIG     1      -1.143  -0.229  -0.462  1.00  0.00    -0.043 NA
ENDROOT
TORSDOF 0
