REMARK  16 active torsions:
REMARK  status: ('A' for Active; 'I' for Inactive)
REMARK    1  A    between atoms: C_2  and  C_3 
REMARK    2  A    between atoms: C_3  and  C_4 
REMARK    3  A    between atoms: C_4  and  C_5 
REMARK    4  A    between atoms: C_5  and  C_6 
REMARK    5  A    between atoms: C_6  and  C_7 
REMARK    6  A    between atoms: C_7  and  C_8 
REMARK    7  A    between atoms: C_8  and  C_9 
REMARK    8  A    between atoms: C_9  and  C_10 
REMARK    9  A    between atoms: C_10  and  C_11 
REMARK   10  A    between atoms: C_11  and  C_12 
REMARK   11  A    between atoms: C_12  and  C_13 
REMARK   12  A    between atoms: C_13  and  C_14 
REMARK   13  A    between atoms: C_14  and  C_15 
REMARK   14  A    between atoms: C_15  and  C_16 
REMARK   15  A    between atoms: C_16  and  C_17 
REMARK   16  A    between atoms: C_17  and  C_18 
ROOT
HETATM    1  C   LIG     1       0.534  -1.648   0.057  1.00  0.00     0.000 C 
ENDROOT
BRANCH   1   2
HETATM    2  C   LIG     1       0.153  -0.410   0.884  1.00  0.00     0.000 C 
BRANCH   2   3
HETATM    3  C   LIG     1      -1.368  -0.240   1.024  1.00  0.00     0.000 C 
BRANCH   3   4
HETATM    4  C   LIG     1      -2.039   0.159  -0.302  1.00  0.00     0.000 C 
BRANCH   4   5
HETATM    5  C   LIG     1      -3.508   0.575  -0.121  1.00  0.00     0.000 C 
BRANCH   5   6
HETATM    6  C   LIG     1      -4.431  -0.626   0.149  1.00  0.00     0.000 C 
BRANCH   6   7
HETATM    7  C   LIG     1      -5.893  -0.210   0.384  1.00  0.00     0.000 C 
BRANCH   7   8
HETATM    8  C   LIG     1      -6.597   0.241  -0.907  1.00  0.00     0.000 C 
BRANCH   8   9
HETATM    9  C   LIG     1      -8.074   0.599  -0.674  1.00  0.00     0.000 C 
HETATM   10  C   LIG     1      -8.959  -0.634  -0.491  1.00  0.00     0.000 C 
ENDBRANCH   8   9
ENDBRANCH   7   8
ENDBRANCH   6   7
ENDBRANCH   5   6
ENDBRANCH   4   5
ENDBRANCH   3   4
ENDBRANCH   2   3
ENDBRANCH   1   2
BRANCH   1  11
HETATM   11  C   LIG     1       2.038  -1.967   0.120  1.00  0.00     0.000 C 
BRANCH  11  12
HETATM   12  C   LIG     1       2.921  -0.920  -0.591  1.00  0.00     0.000 C 
BRANCH  12  13
HETATM   13  C   LIG     1       3.599   0.042   0.400  1.00  0.00     0.000 C 
BRANCH  13  14
HETATM   14  C   LIG     1       4.289   1.227  -0.297  1.00  0.00     0.000 C 
BRANCH  14  15
HETATM   15  C   LIG     1       5.428   0.841  -1.262  1.00  0.00     0.001 C 
BRANCH  15  16
HETATM   16  C   LIG     1       6.570   0.017  -0.632  1.00  0.00     0.011 C 
BRANCH  16  17
HETATM   17  C   LIG     1       7.271   0.707   0.551  1.00  0.00     0.098 C 
BRANCH  17  18
HETATM   18  C   LIG     1       7.888   2.018   0.158  1.00  0.00     0.185 C 
HETATM   19  O   LIG     1       8.945   2.063  -0.747  1.00  0.00    -0.647 OA
HETATM   20  O   LIG     1       7.458   3.089   0.660  1.00  0.00    -0.647 OA
ENDBRANCH  17  18
ENDBRANCH  16  17
ENDBRANCH  15  16
ENDBRANCH  14  15
ENDBRANCH  13  14
ENDBRANCH  12  13
ENDBRANCH  11  12
ENDBRANCH   1  11
TORSDOF 16
