REMARK  14 active torsions:
REMARK  status: ('A' for Active; 'I' for Inactive)
REMARK    1  A    between atoms: C_2  and  C_3 
REMARK    2  A    between atoms: C_3  and  C_4 
REMARK    3  A    between atoms: C_4  and  C_5 
REMARK    4  A    between atoms: C_5  and  C_6 
REMARK    5  A    between atoms: C_6  and  C_7 
REMARK    6  A    between atoms: C_7  and  C_8 
REMARK    7  A    between atoms: C_8  and  C_9 
REMARK    8  A    between atoms: C_9  and  C_10 
REMARK    9  A    between atoms: C_10  and  C_11 
REMARK   10  A    between atoms: C_11  and  C_12 
REMARK   11  A    between atoms: C_12  and  C_13 
REMARK   12  A    between atoms: C_13  and  C_14 
REMARK   13  A    between atoms: C_14  and  C_15 
REMARK   14  A    between atoms: C_15  and  C_16 
ROOT
HETATM    1  C   LIG     1       0.892   0.016  -1.126  1.00  0.00     0.000 C 
ENDROOT
BRANCH   1   2
HETATM    2  C   LIG     1      -0.296   0.181  -2.092  1.00  0.00     0.000 C 
BRANCH   2   3
HETATM    3  C   LIG     1      -1.686   0.093  -1.436  1.00  0.00     0.000 C 
BRANCH   3   4
HETATM    4  C   LIG     1      -1.932  -1.253  -0.733  1.00  0.00     0.000 C 
BRANCH   4   5
HETATM    5  C   LIG     1      -3.405  -1.453  -0.344  1.00  0.00     0.000 C 
BRANCH   5   6
HETATM    6  C   LIG     1      -3.861  -0.477   0.755  1.00  0.00     0.000 C 
BRANCH   6   7
HETATM    7  C   LIG     1      -5.236  -0.842   1.345  1.00  0.00     0.000 C 
BRANCH   7   8
HETATM    8  C   LIG     1      -6.397  -0.816   0.335  1.00  0.00     0.000 C 
HETATM    9  C   LIG     1      -6.626   0.565  -0.279  1.00  0.00     0.000 C 
ENDBRANCH   7   8
ENDBRANCH   6   7
ENDBRANCH   5   6
ENDBRANCH   4   5
ENDBRANCH   3   4
ENDBRANCH   2   3
ENDBRANCH   1   2
BRANCH   1  10
HETATM   10  C   LIG     1       0.944   1.113  -0.048  1.00  0.00     0.000 C 
BRANCH  10  11
HETATM   11  C   LIG     1       2.186   0.994   0.850  1.00  0.00     0.000 C 
BRANCH  11  12
HETATM   12  C   LIG     1       3.477   1.437   0.138  1.00  0.00     0.000 C 
BRANCH  12  13
HETATM   13  C   LIG     1       4.674   1.562   1.098  1.00  0.00     0.001 C 
BRANCH  13  14
HETATM   14  C   LIG     1       5.070   0.257   1.817  1.00  0.00     0.011 C 
BRANCH  14  15
HETATM   15  C   LIG     1       5.431  -0.905   0.877  1.00  0.00     0.098 C 
BRANCH  15  16
HETATM   16  C   LIG     1       6.575  -0.566  -0.029  1.00  0.00     0.185 C 
HETATM   17  O   LIG     1       6.383  -0.538  -1.407  1.00  0.00    -0.647 OA
HETATM   18  O   LIG     1       7.712  -0.312   0.453  1.00  0.00    -0.647 OA
ENDBRANCH  15  16
ENDBRANCH  14  15
ENDBRANCH  13  14
ENDBRANCH  12  13
ENDBRANCH  11  12
ENDBRANCH  10  11
ENDBRANCH   1  10
TORSDOF 14
