REMARK  0 active torsions:
REMARK  status: ('A' for Active; 'I' for Inactive)
ROOT
HETATM    1  O   LIG     1       4.680  -0.247   0.980  1.00  0.00    -0.188 OA
HETATM    2  C   LIG     1       3.400  -0.742   0.746  1.00  0.00     0.153 C 
HETATM    3  C   LIG     1       2.285   0.101   0.720  1.00  0.00     0.115 A 
HETATM    4  C   LIG     1       1.030  -0.405   0.550  1.00  0.00     0.001 A 
HETATM    5  C   LIG     1       0.824  -1.709   0.091  1.00  0.00    -0.022 C 
HETATM    6  C   LIG     1       1.923  -2.590   0.121  1.00  0.00    -0.002 C 
HETATM    7  C   LIG     1       3.201  -2.113   0.489  1.00  0.00     0.029 C 
HETATM    8  C   LIG     1      -0.461  -2.052  -0.661  1.00  0.00     0.060 C 
HETATM    9  C   LIG     1      -1.415  -0.817  -0.934  1.00  0.00     0.228 C 
HETATM   10  C   LIG     1      -0.585   0.489  -0.984  1.00  0.00     0.060 C 
HETATM   11  O   LIG     1       2.279   1.487   0.708  1.00  0.00    -0.328 OA
HETATM   12  C   LIG     1       0.945   1.979   0.513  1.00  0.00     0.160 A 
HETATM   13  C   LIG     1       0.052   0.692   0.404  1.00  0.00     0.056 A 
HETATM   14  C   LIG     1      -1.009   0.667   1.540  1.00  0.00     0.042 C 
HETATM   15  C   LIG     1      -1.961  -0.531   1.448  1.00  0.00     0.251 C 
HETATM   16  N   LIG     1      -2.490  -0.668   0.079  1.00  0.00     0.138 N 
HETATM   17  C   LIG     1      -3.507  -1.729   0.000  1.00  0.00     0.285 C 
HETATM   18  C   LIG     1       0.820   2.907  -0.728  1.00  0.00     0.202 C 
HETATM   19  C   LIG     1      -0.616   2.912  -1.247  1.00  0.00     0.004 C 
HETATM   20  C   LIG     1      -1.296   1.755  -1.374  1.00  0.00    -0.026 C 
HETATM   21  O   LIG     1       1.688   2.470  -1.741  1.00  0.00    -0.216 OA
ENDROOT
TORSDOF 0
