REMARK  0 active torsions:
REMARK  status: ('A' for Active; 'I' for Inactive)
ROOT
HETATM    1  O   LIG     1      -1.341   3.821   1.111  1.00  0.00    -0.272 OA
HETATM    2  C   LIG     1      -0.626   2.867   0.707  1.00  0.00     0.240 C 
HETATM    3  C   LIG     1       0.811   3.118   0.212  1.00  0.00     0.118 C 
HETATM    4  N   LIG     1      -1.150   1.526   0.644  1.00  0.00    -0.301 N 
HETATM    5  C   LIG     1      -0.400   0.624  -0.166  1.00  0.00     0.096 C 
HETATM    6  C   LIG     1      -1.016  -0.785  -0.077  1.00  0.00     0.071 C 
HETATM    7  C   LIG     1      -0.862  -1.498   1.280  1.00  0.00     0.043 C 
HETATM    8  C   LIG     1       0.287  -2.493   1.153  1.00  0.00     0.251 C 
HETATM    9  C   LIG     1      -0.233  -1.730  -1.077  1.00  0.00     0.225 C 
HETATM   10  N   LIG     1       0.671  -2.611  -0.262  1.00  0.00     0.139 N 
HETATM   11  C   LIG     1       2.168  -2.490  -0.462  1.00  0.00     0.272 C 
HETATM   12  C   LIG     1       0.640  -0.931  -2.072  1.00  0.00     0.038 C 
HETATM   13  C   LIG     1       1.669  -0.110  -1.215  1.00  0.00     0.026 C 
HETATM   14  C   LIG     1       2.652  -1.039  -0.632  1.00  0.00    -0.013 C 
HETATM   15  C   LIG     1       3.691  -0.514   0.076  1.00  0.00    -0.001 C 
HETATM   16  C   LIG     1       3.938   0.996   0.366  1.00  0.00     0.168 C 
HETATM   17  O   LIG     1       3.006   1.964  -0.159  1.00  0.00    -0.351 OA
HETATM   18  C   LIG     1       1.734   1.886   0.482  1.00  0.00     0.127 C 
HETATM   19  C   LIG     1       1.059   0.577   0.061  1.00  0.00     0.053 C 
HETATM   20  C   LIG     1      -2.473   1.015   0.390  1.00  0.00     0.058 A 
HETATM   21  C   LIG     1      -2.435  -0.285  -0.152  1.00  0.00    -0.003 A 
HETATM   22  C   LIG     1      -3.606  -0.961  -0.489  1.00  0.00    -0.003 A 
HETATM   23  C   LIG     1      -4.829  -0.288  -0.332  1.00  0.00    -0.000 A 
HETATM   24  C   LIG     1      -4.867   1.027   0.179  1.00  0.00     0.002 A 
HETATM   25  C   LIG     1      -3.683   1.690   0.545  1.00  0.00     0.017 A 
ENDROOT
TORSDOF 0
