REMARK  4 active torsions:
REMARK  status: ('A' for Active; 'I' for Inactive)
REMARK    1  A    between atoms: C_6  and  C_12 
REMARK    2  A    between atoms: C_6  and  C_7 
REMARK    3  A    between atoms: C_7  and  C_8 
REMARK    4  A    between atoms: C_8  and  C_9 
ROOT
HETATM    1  O   LIG     1      -3.777  -2.375  -1.826  1.00  0.00    -0.242 OA
HETATM    2  C   LIG     1      -2.964  -1.605  -1.250  1.00  0.00     0.373 C 
HETATM    3  N   LIG     1      -2.427  -0.485  -1.945  1.00  0.00    -0.155 NA
HETATM    4  N   LIG     1      -2.564  -1.866   0.091  1.00  0.00    -0.155 NA
HETATM    5  C   LIG     1      -1.615  -1.027   0.754  1.00  0.00     0.267 C 
HETATM    6  C   LIG     1      -1.221   0.339   0.192  1.00  0.00     0.146 C 
HETATM    7  C   LIG     1      -1.573   0.457  -1.290  1.00  0.00     0.267 C 
HETATM    8  O   LIG     1      -1.146   1.444  -1.950  1.00  0.00    -0.270 OA
HETATM    9  O   LIG     1      -1.123  -1.422   1.846  1.00  0.00    -0.270 OA
ENDROOT
BRANCH   6  10
HETATM   10  C   LIG     1      -2.030   1.454   0.922  1.00  0.00     0.018 C 
HETATM   11  C   LIG     1      -1.822   1.549   2.438  1.00  0.00     0.001 C 
ENDBRANCH   6  10
BRANCH   6  12
HETATM   12  C   LIG     1       0.315   0.563   0.370  1.00  0.00     0.018 C 
BRANCH  12  13
HETATM   13  C   LIG     1       1.183  -0.412  -0.457  1.00  0.00     0.001 C 
BRANCH  13  14
HETATM   14  C   LIG     1       2.683  -0.334  -0.093  1.00  0.00     0.000 C 
HETATM   15  C   LIG     1       3.450  -1.473  -0.777  1.00  0.00     0.000 C 
HETATM   16  C   LIG     1       3.300   1.018  -0.485  1.00  0.00     0.000 C 
ENDBRANCH  13  14
ENDBRANCH  12  13
ENDBRANCH   6  12
TORSDOF 4
