REMARK  2 active torsions:
REMARK  status: ('A' for Active; 'I' for Inactive)
REMARK    1  A    between atoms: C_3  and  C_4 
REMARK    2  A    between atoms: C_3  and  C_6 
ROOT
HETATM    1  O   LIG     1       0.234  -1.273   1.824  1.00  0.00    -0.270 OA
HETATM    2  C   LIG     1       0.692  -0.427   1.008  1.00  0.00     0.267 C 
HETATM    3  C   LIG     1      -0.130  -0.033  -0.219  1.00  0.00     0.146 C 
HETATM    4  C   LIG     1       0.376   1.269  -0.837  1.00  0.00     0.267 C 
HETATM    5  N   LIG     1       1.638   1.839  -0.477  1.00  0.00    -0.155 NA
HETATM    6  O   LIG     1      -0.307   1.835  -1.734  1.00  0.00    -0.270 OA
HETATM    7  N   LIG     1       1.996   0.110   1.242  1.00  0.00    -0.155 NA
HETATM    8  C   LIG     1       2.467   1.237   0.512  1.00  0.00     0.373 C 
HETATM    9  O   LIG     1       3.608   1.713   0.753  1.00  0.00    -0.242 OA
ENDROOT
BRANCH   3  10
HETATM   10  C   LIG     1      -1.629   0.143   0.182  1.00  0.00     0.018 C 
HETATM   11  C   LIG     1      -1.875   1.288   1.173  1.00  0.00     0.001 C 
ENDBRANCH   3  10
BRANCH   3  12
HETATM   12  C   LIG     1       0.021  -1.125  -1.321  1.00  0.00     0.018 C 
HETATM   13  C   LIG     1      -0.435  -2.537  -0.933  1.00  0.00     0.001 C 
ENDBRANCH   3  12
TORSDOF 2
