REMARK  8 active torsions:
REMARK  status: ('A' for Active; 'I' for Inactive)
REMARK    1  A    between atoms: C_2  and  C_8 
REMARK    2  A    between atoms: C_2  and  C_3 
REMARK    3  A    between atoms: C_2  and  C_11 
REMARK    4  A    between atoms: C_3  and  O_4 
REMARK    5  A    between atoms: O_4  and  C_5 
REMARK    6  A    between atoms: C_8  and  C_9 
REMARK    7  A    between atoms: C_11  and  O_12 
REMARK    8  A    between atoms: O_12  and  C_13 
ROOT
HETATM    1  C   LIG     1       0.887   0.305  -1.332  1.00  0.00     0.005 C 
HETATM    2  C   LIG     1       0.234  -0.382  -0.108  1.00  0.00     0.056 C 
ENDROOT
BRANCH   2   3
HETATM    3  C   LIG     1      -0.859  -1.366  -0.639  1.00  0.00     0.005 C 
BRANCH   3   4
HETATM    4  C   LIG     1      -1.706  -2.096   0.433  1.00  0.00     0.000 C 
HETATM    5  C   LIG     1      -3.106  -1.500   0.585  1.00  0.00     0.000 C 
ENDBRANCH   3   4
ENDBRANCH   2   3
BRANCH   2   6
HETATM    6  C   LIG     1       1.336  -1.164   0.661  1.00  0.00     0.156 C 
BRANCH   6   7
HETATM    7  O   LIG     1       2.400  -0.293   1.053  1.00  0.00    -0.287 OA
BRANCH   7   8
HETATM    8  C   LIG     1       3.730  -0.443   0.646  1.00  0.00     0.373 C 
HETATM    9  N   LIG     1       4.709   0.487   1.099  1.00  0.00    -0.032 NA
HETATM   10  O   LIG     1       4.073  -1.385  -0.119  1.00  0.00    -0.242 OA
ENDBRANCH   7   8
ENDBRANCH   6   7
ENDBRANCH   2   6
BRANCH   2  11
HETATM   11  C   LIG     1      -0.376   0.707   0.810  1.00  0.00     0.156 C 
BRANCH  11  12
HETATM   12  O   LIG     1      -1.419   1.413   0.132  1.00  0.00    -0.287 OA
BRANCH  12  13
HETATM   13  C   LIG     1      -1.402   2.788  -0.122  1.00  0.00     0.373 C 
HETATM   14  N   LIG     1      -2.502   3.387  -0.802  1.00  0.00    -0.032 NA
HETATM   15  O   LIG     1      -0.427   3.503   0.235  1.00  0.00    -0.242 OA
ENDBRANCH  12  13
ENDBRANCH  11  12
ENDBRANCH   2  11
TORSDOF 8
