REMARK  2 active torsions:
REMARK  status: ('A' for Active; 'I' for Inactive)
REMARK    1  A    between atoms: N_2  and  C_3 
REMARK    2  A    between atoms: C_24  and  C_25 
ROOT
HETATM    1  C   LIG     1      -2.559  -0.980  -0.380  1.00  0.00     0.270 C 
HETATM    2  C   LIG     1      -1.170  -0.348   0.045  1.00  0.00     0.080 C 
HETATM    3  C   LIG     1      -0.002  -0.714  -0.886  1.00  0.00     0.013 C 
HETATM    4  C   LIG     1       1.335  -0.365  -0.190  1.00  0.00     0.059 C 
HETATM    5  C   LIG     1       1.312   0.948   0.580  1.00  0.00     0.043 C 
HETATM    6  C   LIG     1       2.623   1.377   1.135  1.00  0.00     0.195 C 
HETATM    7  C   LIG     1       3.849   0.593   0.818  1.00  0.00     0.063 C 
HETATM    8  C   LIG     1       3.869  -0.216  -0.355  1.00  0.00     0.021 C 
HETATM    9  C   LIG     1       2.568  -0.427  -1.155  1.00  0.00     0.150 C 
HETATM   10  O   LIG     1       2.567  -1.687  -1.784  1.00  0.00    -0.221 OA
HETATM   11  C   LIG     1       2.500   0.657  -2.253  1.00  0.00     0.038 C 
HETATM   12  C   LIG     1       5.116  -0.733  -0.803  1.00  0.00     0.056 C 
HETATM   13 CL   LIG     1       5.326  -1.560  -2.347  1.00  0.00    -0.083 Cl
HETATM   14  C   LIG     1       6.266  -0.557  -0.033  1.00  0.00     0.013 C 
HETATM   15  C   LIG     1       6.210   0.124   1.176  1.00  0.00     0.028 C 
HETATM   16  C   LIG     1       5.015   0.686   1.621  1.00  0.00     0.134 C 
HETATM   17  O   LIG     1       5.022   1.295   2.878  1.00  0.00    -0.190 OA
HETATM   18  O   LIG     1       2.715   2.441   1.806  1.00  0.00    -0.287 OA
HETATM   19  C   LIG     1       0.175   1.676   0.747  1.00  0.00     0.142 C 
HETATM   20  C   LIG     1      -1.168   1.198   0.198  1.00  0.00     0.225 C 
HETATM   21  C   LIG     1      -2.339   1.508   1.097  1.00  0.00     0.212 C 
HETATM   22  C   LIG     1      -3.663   1.064   0.641  1.00  0.00     0.113 C 
HETATM   23  C   LIG     1      -3.735  -0.002  -0.192  1.00  0.00     0.147 C 
HETATM   24  O   LIG     1      -4.887  -0.238  -0.952  1.00  0.00    -0.193 OA
HETATM   25  O   LIG     1      -2.203   2.068   2.218  1.00  0.00    -0.288 OA
HETATM   26  O   LIG     1      -1.342   1.864  -1.037  1.00  0.00    -0.211 OA
HETATM   27  O   LIG     1       0.255   2.950   1.318  1.00  0.00    -0.192 OA
ENDROOT
BRANCH   1  28
HETATM   28  N   LIG     1      -2.821  -2.249   0.380  1.00  0.00     0.146 N 
HETATM   29  C   LIG     1      -4.146  -2.833   0.078  1.00  0.00     0.286 C 
HETATM   30  C   LIG     1      -1.796  -3.281   0.124  1.00  0.00     0.286 C 
ENDBRANCH   1  28
BRANCH  22  31
HETATM   31  C   LIG     1      -4.862   1.835   1.046  1.00  0.00     0.271 C 
HETATM   32  N   LIG     1      -4.800   3.256   1.190  1.00  0.00    -0.057 NA
HETATM   33  O   LIG     1      -5.942   1.237   1.298  1.00  0.00    -0.271 OA
ENDBRANCH  22  31
TORSDOF 2
