REMARK  0 active torsions:
REMARK  status: ('A' for Active; 'I' for Inactive)
ROOT
HETATM    1  O   LIG     1       6.477  -0.685  -1.087  1.00  0.00    -0.190 OA
HETATM    2  C   LIG     1       5.090  -0.665  -0.957  1.00  0.00     0.131 A 
HETATM    3  C   LIG     1       4.438   0.546  -0.715  1.00  0.00     0.023 A 
HETATM    4  C   LIG     1       3.042   0.594  -0.576  1.00  0.00    -0.024 A 
HETATM    5  C   LIG     1       2.393   1.933  -0.239  1.00  0.00     0.026 C 
HETATM    6  C   LIG     1       0.892   1.887   0.156  1.00  0.00     0.005 C 
HETATM    7  C   LIG     1       0.447   0.469   0.549  1.00  0.00     0.004 C 
HETATM    8  C   LIG     1       0.778  -0.488  -0.625  1.00  0.00     0.022 C 
HETATM    9  C   LIG     1      -0.025  -1.808  -0.526  1.00  0.00     0.004 C 
HETATM   10  C   LIG     1      -1.566  -1.583  -0.561  1.00  0.00     0.004 C 
HETATM   11  C   LIG     1      -2.036  -0.199   0.011  1.00  0.00     0.037 C 
HETATM   12  C   LIG     1      -2.228   0.818  -1.166  1.00  0.00     0.003 C 
HETATM   13  C   LIG     1      -1.016   0.296   1.048  1.00  0.00     0.004 C 
HETATM   14  C   LIG     1      -1.708   1.428   1.799  1.00  0.00     0.004 C 
HETATM   15  C   LIG     1      -3.200   1.048   1.775  1.00  0.00     0.043 C 
HETATM   16  C   LIG     1      -3.332  -0.225   0.896  1.00  0.00     0.180 C 
HETATM   17  C   LIG     1      -4.600  -0.185   0.121  1.00  0.00    -0.049 C 
HETATM   18  C   LIG     1      -5.629  -0.155  -0.507  1.00  0.00    -0.012 C 
HETATM   19  O   LIG     1      -3.335  -1.339   1.767  1.00  0.00    -0.213 OA
HETATM   20  C   LIG     1       2.287  -0.599  -0.708  1.00  0.00    -0.026 A 
HETATM   21  C   LIG     1       2.957  -1.817  -0.938  1.00  0.00    -0.003 A 
HETATM   22  C   LIG     1       4.348  -1.845  -1.062  1.00  0.00     0.027 A 
ENDROOT
TORSDOF 0
