REMARK  1 active torsions:
REMARK  status: ('A' for Active; 'I' for Inactive)
REMARK    1  A    between atoms: C_19  and  C_20 
ROOT
HETATM    1  O   LIG     1      -5.967   0.894  -1.991  1.00  0.00    -0.291 OA
HETATM    2  C   LIG     1      -4.911   0.507  -1.425  1.00  0.00     0.172 C 
HETATM    3  C   LIG     1      -4.500  -0.932  -1.534  1.00  0.00     0.070 C 
HETATM    4  C   LIG     1      -3.010  -1.118  -1.211  1.00  0.00     0.012 C 
HETATM    5  C   LIG     1      -2.578  -0.377   0.091  1.00  0.00     0.016 C 
HETATM    6  C   LIG     1      -3.279  -1.018   1.315  1.00  0.00     0.004 C 
HETATM    7  C   LIG     1      -3.006   1.098   0.014  1.00  0.00    -0.042 C 
HETATM    8  C   LIG     1      -2.112   2.152   0.647  1.00  0.00     0.022 C 
HETATM    9  C   LIG     1      -0.659   2.085   0.109  1.00  0.00     0.004 C 
HETATM   10  C   LIG     1      -0.327   0.710  -0.517  1.00  0.00     0.001 C 
HETATM   11  C   LIG     1      -1.018  -0.431   0.294  1.00  0.00     0.004 C 
HETATM   12  C   LIG     1      -0.338  -1.801   0.034  1.00  0.00     0.000 C 
HETATM   13  C   LIG     1       1.155  -1.809   0.474  1.00  0.00     0.000 C 
HETATM   14  C   LIG     1       1.879  -0.427   0.318  1.00  0.00     0.006 C 
HETATM   15  C   LIG     1       1.949   0.320   1.690  1.00  0.00     0.000 C 
HETATM   16  C   LIG     1       1.174   0.401  -0.770  1.00  0.00     0.000 C 
HETATM   17  C   LIG     1       2.142   1.519  -1.134  1.00  0.00     0.000 C 
HETATM   18  C   LIG     1       3.532   0.889  -0.925  1.00  0.00     0.007 C 
HETATM   19  C   LIG     1       3.298  -0.515  -0.310  1.00  0.00     0.058 C 
HETATM   20  C   LIG     1      -4.112   1.471  -0.652  1.00  0.00     0.029 C 
ENDROOT
BRANCH  19  21
HETATM   21  C   LIG     1       4.417  -0.998   0.600  1.00  0.00     0.151 C 
HETATM   22  C   LIG     1       5.847  -0.601   0.351  1.00  0.00     0.072 C 
HETATM   23  O   LIG     1       4.173  -1.791   1.498  1.00  0.00    -0.296 OA
ENDBRANCH  19  21
TORSDOF 1
