REMARK  3 active torsions:
REMARK  status: ('A' for Active; 'I' for Inactive)
REMARK    1  A    between atoms: C_19  and  O_20 
REMARK    2  A    between atoms: O_20  and  C_21 
REMARK    3  A    between atoms: C_21  and  C_22 
ROOT
HETATM    1  O   LIG     1      -6.775  -0.714  -0.358  1.00  0.00    -0.291 OA
HETATM    2  C   LIG     1      -5.581  -0.317  -0.314  1.00  0.00     0.172 C 
HETATM    3  C   LIG     1      -5.193   0.744   0.674  1.00  0.00     0.070 C 
HETATM    4  C   LIG     1      -3.675   0.765   0.911  1.00  0.00     0.012 C 
HETATM    5  C   LIG     1      -2.857   0.730  -0.415  1.00  0.00     0.016 C 
HETATM    6  C   LIG     1      -3.092   2.040  -1.207  1.00  0.00     0.004 C 
HETATM    7  C   LIG     1      -3.326  -0.446  -1.288  1.00  0.00    -0.042 C 
HETATM    8  C   LIG     1      -2.301  -1.175  -2.143  1.00  0.00     0.022 C 
HETATM    9  C   LIG     1      -1.105  -1.697  -1.303  1.00  0.00     0.004 C 
HETATM   10  C   LIG     1      -0.972  -0.957   0.047  1.00  0.00     0.001 C 
HETATM   11  C   LIG     1      -1.318   0.554  -0.137  1.00  0.00     0.004 C 
HETATM   12  C   LIG     1      -0.716   1.420   1.002  1.00  0.00     0.000 C 
HETATM   13  C   LIG     1       0.841   1.329   1.058  1.00  0.00     0.002 C 
HETATM   14  C   LIG     1       1.418  -0.054   0.596  1.00  0.00     0.026 C 
HETATM   15  C   LIG     1       1.907   0.031  -0.879  1.00  0.00     0.002 C 
HETATM   16  C   LIG     1       0.360  -1.147   0.816  1.00  0.00     0.002 C 
HETATM   17  C   LIG     1       1.107  -2.476   0.760  1.00  0.00     0.003 C 
HETATM   18  C   LIG     1       2.485  -2.155   1.371  1.00  0.00     0.030 C 
HETATM   19  C   LIG     1       2.545  -0.612   1.505  1.00  0.00     0.124 C 
HETATM   20  C   LIG     1      -4.596  -0.884  -1.248  1.00  0.00     0.029 C 
ENDROOT
BRANCH  19  21
HETATM   21  O   LIG     1       3.841  -0.008   1.337  1.00  0.00    -0.304 OA
BRANCH  21  22
HETATM   22  C   LIG     1       4.811  -0.265   0.354  1.00  0.00     0.272 C 
HETATM   23  O   LIG     1       4.649  -1.147  -0.530  1.00  0.00    -0.264 OA
BRANCH  22  24
HETATM   24  C   LIG     1       6.046   0.576   0.328  1.00  0.00     0.096 C 
HETATM   25  C   LIG     1       5.797   1.863  -0.449  1.00  0.00     0.011 C 
ENDBRANCH  22  24
ENDBRANCH  21  22
ENDBRANCH  19  21
TORSDOF 3
