REMARK  0 active torsions:
REMARK  status: ('A' for Active; 'I' for Inactive)
ROOT
HETATM    1  C   LIG     1      -2.393  -1.660   0.358  1.00  0.00     0.003 C 
HETATM    2  C   LIG     1      -2.327  -0.101   0.420  1.00  0.00     0.028 C 
HETATM    3  C   LIG     1      -1.776   0.336   1.799  1.00  0.00     0.003 C 
HETATM    4  C   LIG     1      -0.280  -0.036   1.962  1.00  0.00     0.004 C 
HETATM    5  C   LIG     1       0.607   0.462   0.778  1.00  0.00     0.022 C 
HETATM    6  C   LIG     1       2.077   0.049   0.877  1.00  0.00    -0.026 A 
HETATM    7  C   LIG     1       2.855  -0.129  -0.301  1.00  0.00    -0.024 A 
HETATM    8  C   LIG     1       2.257  -0.044  -1.689  1.00  0.00     0.026 C 
HETATM    9  C   LIG     1       0.875   0.615  -1.717  1.00  0.00     0.005 C 
HETATM   10  C   LIG     1       0.005   0.038  -0.595  1.00  0.00     0.004 C 
HETATM   11  C   LIG     1      -1.450   0.539  -0.664  1.00  0.00     0.003 C 
HETATM   12  C   LIG     1      -2.239   0.360  -1.953  1.00  0.00     0.003 C 
HETATM   13  C   LIG     1      -3.709   0.465  -1.510  1.00  0.00     0.033 C 
HETATM   14  C   LIG     1      -3.723   0.441   0.036  1.00  0.00     0.152 C 
HETATM   15  O   LIG     1      -3.920   1.748   0.516  1.00  0.00    -0.224 OA
HETATM   16  C   LIG     1       4.216  -0.458  -0.195  1.00  0.00     0.023 A 
HETATM   17  C   LIG     1       4.830  -0.565   1.056  1.00  0.00     0.131 A 
HETATM   18  O   LIG     1       6.181  -0.887   1.160  1.00  0.00    -0.190 OA
HETATM   19  C   LIG     1       4.085  -0.340   2.212  1.00  0.00     0.027 A 
HETATM   20  C   LIG     1       2.728  -0.024   2.127  1.00  0.00    -0.003 A 
ENDROOT
TORSDOF 0
