REMARK  0 active torsions:
REMARK  status: ('A' for Active; 'I' for Inactive)
ROOT
HETATM    1  C   LIG     1      -0.173  -2.574  -0.176  1.00  0.00     0.031 C 
HETATM    2  C   LIG     1       0.340  -1.143  -0.195  1.00  0.00    -0.022 C 
HETATM    3  C   LIG     1      -0.551  -0.046  -0.013  1.00  0.00    -0.004 C 
HETATM    4  C   LIG     1      -1.942  -0.094  -0.355  1.00  0.00    -0.000 C 
HETATM    5  C   LIG     1      -2.462  -0.988  -1.321  1.00  0.00    -0.000 C 
HETATM    6  C   LIG     1      -3.831  -1.033  -1.594  1.00  0.00    -0.000 C 
HETATM    7  C   LIG     1      -4.705  -0.163  -0.947  1.00  0.00     0.000 C 
HETATM    8  C   LIG     1      -4.207   0.793  -0.063  1.00  0.00    -0.000 C 
HETATM    9  C   LIG     1      -2.830   0.861   0.204  1.00  0.00    -0.000 C 
HETATM   10  C   LIG     1      -2.330   1.898   0.988  1.00  0.00    -0.000 C 
HETATM   11  C   LIG     1      -0.959   2.070   1.129  1.00  0.00    -0.000 C 
HETATM   12  C   LIG     1      -0.044   1.148   0.573  1.00  0.00    -0.004 C 
HETATM   13  C   LIG     1       1.356   1.385   0.616  1.00  0.00    -0.022 C 
HETATM   14  C   LIG     1       1.892   2.767   0.961  1.00  0.00     0.031 C 
HETATM   15  C   LIG     1       2.250   0.332   0.290  1.00  0.00    -0.004 A 
HETATM   16  C   LIG     1       1.739  -0.927  -0.130  1.00  0.00    -0.004 A 
HETATM   17  C   LIG     1       2.649  -1.957  -0.470  1.00  0.00    -0.000 A 
HETATM   18  C   LIG     1       4.024  -1.766  -0.361  1.00  0.00    -0.000 A 
HETATM   19  C   LIG     1       4.524  -0.555   0.097  1.00  0.00    -0.000 A 
HETATM   20  C   LIG     1       3.653   0.482   0.426  1.00  0.00    -0.000 A 
ENDROOT
TORSDOF 0
