REMARK  0 active torsions:
REMARK  status: ('A' for Active; 'I' for Inactive)
ROOT
HETATM    1  C   LIG     1       3.057  -0.322  -0.181  1.00  0.00     0.031 C 
HETATM    2  C   LIG     1       1.572  -0.582  -0.119  1.00  0.00    -0.022 A 
HETATM    3  C   LIG     1       0.628   0.471  -0.010  1.00  0.00    -0.004 A 
HETATM    4  C   LIG     1       1.038   1.822   0.045  1.00  0.00    -0.000 A 
HETATM    5  C   LIG     1       0.100   2.848   0.151  1.00  0.00    -0.000 A 
HETATM    6  C   LIG     1      -1.259   2.553   0.205  1.00  0.00    -0.000 A 
HETATM    7  C   LIG     1      -1.692   1.228   0.153  1.00  0.00    -0.000 A 
HETATM    8  C   LIG     1      -0.765   0.168   0.045  1.00  0.00    -0.004 A 
HETATM    9  C   LIG     1      -1.193  -1.183  -0.009  1.00  0.00    -0.022 A 
HETATM   10  C   LIG     1      -2.652  -1.563   0.045  1.00  0.00     0.031 C 
HETATM   11  C   LIG     1      -0.238  -2.203  -0.117  1.00  0.00    -0.004 A 
HETATM   12  C   LIG     1       1.120  -1.907  -0.170  1.00  0.00    -0.004 A 
ENDROOT
TORSDOF 0
