REMARK  0 active torsions:
REMARK  status: ('A' for Active; 'I' for Inactive)
ROOT
HETATM    1  C   LIG     1      -3.142   0.590  -0.096  1.00  0.00     0.031 C 
HETATM    2  C   LIG     1      -1.868  -0.211  -0.002  1.00  0.00    -0.022 A 
HETATM    3  C   LIG     1      -0.587   0.403  -0.047  1.00  0.00    -0.004 A 
HETATM    4  C   LIG     1      -0.448   1.799  -0.182  1.00  0.00    -0.000 A 
HETATM    5  C   LIG     1       0.813   2.388  -0.225  1.00  0.00    -0.000 A 
HETATM    6  C   LIG     1       1.960   1.605  -0.134  1.00  0.00    -0.004 A 
HETATM    7  C   LIG     1       1.868   0.211   0.002  1.00  0.00    -0.022 A 
HETATM    8  C   LIG     1       3.142  -0.590   0.096  1.00  0.00     0.031 C 
HETATM    9  C   LIG     1       0.587  -0.403   0.047  1.00  0.00    -0.004 A 
HETATM   10  C   LIG     1       0.448  -1.799   0.182  1.00  0.00    -0.000 A 
HETATM   11  C   LIG     1      -0.813  -2.388   0.225  1.00  0.00    -0.000 A 
HETATM   12  C   LIG     1      -1.960  -1.605   0.134  1.00  0.00    -0.004 A 
ENDROOT
TORSDOF 0
