REMARK  0 active torsions:
REMARK  status: ('A' for Active; 'I' for Inactive)
ROOT
HETATM    1  C   LIG     1      -0.695   2.646  -0.456  1.00  0.00     0.031 C 
HETATM    2  C   LIG     1      -0.585   1.171  -0.160  1.00  0.00    -0.022 A 
HETATM    3  C   LIG     1       0.668   0.508  -0.116  1.00  0.00    -0.004 A 
HETATM    4  C   LIG     1       1.883   1.189  -0.350  1.00  0.00    -0.000 A 
HETATM    5  C   LIG     1       3.101   0.508  -0.294  1.00  0.00    -0.000 A 
HETATM    6  C   LIG     1       3.133  -0.856  -0.004  1.00  0.00    -0.000 A 
HETATM    7  C   LIG     1       1.945  -1.549   0.231  1.00  0.00    -0.000 A 
HETATM    8  C   LIG     1       0.711  -0.881   0.176  1.00  0.00    -0.001 A 
HETATM    9  C   LIG     1      -0.477  -1.585   0.413  1.00  0.00    -0.004 A 
HETATM   10  C   LIG     1      -1.713  -0.934   0.351  1.00  0.00    -0.022 A 
HETATM   11  C   LIG     1      -2.977  -1.688   0.643  1.00  0.00     0.031 C 
HETATM   12  C   LIG     1      -1.761   0.439   0.081  1.00  0.00    -0.008 A 
ENDROOT
TORSDOF 0
