REMARK  0 active torsions:
REMARK  status: ('A' for Active; 'I' for Inactive)
ROOT
HETATM    1  C   LIG     1       2.505  -0.277   0.616  1.00  0.00     0.033 C 
HETATM    2  C   LIG     1       1.138   0.216   0.226  1.00  0.00     0.003 A 
HETATM    3  C   LIG     1       0.042  -0.673   0.115  1.00  0.00     0.123 A 
HETATM    4  O   LIG     1       0.185  -2.042   0.363  1.00  0.00    -0.191 OA
HETATM    5  C   LIG     1      -1.226  -0.178  -0.252  1.00  0.00     0.003 A 
HETATM    6  C   LIG     1      -2.396  -1.114  -0.373  1.00  0.00     0.033 C 
HETATM    7  C   LIG     1      -1.393   1.192  -0.505  1.00  0.00    -0.002 A 
HETATM    8  C   LIG     1      -0.312   2.065  -0.395  1.00  0.00    -0.001 A 
HETATM    9  C   LIG     1       0.946   1.583  -0.032  1.00  0.00    -0.002 A 
ENDROOT
TORSDOF 0
