REMARK  0 active torsions:
REMARK  status: ('A' for Active; 'I' for Inactive)
ROOT
HETATM    1  O   LIG     1      -1.368   2.392  -0.301  1.00  0.00    -0.190 OA
HETATM    2  C   LIG     1      -1.190   1.011  -0.178  1.00  0.00     0.132 A 
HETATM    3  C   LIG     1       0.083   0.402  -0.025  1.00  0.00     0.043 A 
HETATM    4  C   LIG     1       1.286   1.134   0.019  1.00  0.00     0.005 A 
HETATM    5  C   LIG     1       2.506   0.473   0.172  1.00  0.00     0.021 A 
HETATM    6  C   LIG     1       2.529  -0.916   0.282  1.00  0.00     0.099 A 
HETATM    7  N   LIG     1       1.369  -1.620   0.241  1.00  0.00    -0.244 NA
HETATM    8  C   LIG     1       0.162  -1.011   0.092  1.00  0.00     0.083 A 
HETATM    9  C   LIG     1      -0.999  -1.788   0.056  1.00  0.00     0.019 A 
HETATM   10  C   LIG     1      -2.244  -1.179  -0.095  1.00  0.00     0.004 A 
HETATM   11  C   LIG     1      -2.338   0.208  -0.211  1.00  0.00     0.028 A 
ENDROOT
TORSDOF 0
