REMARK  0 active torsions:
REMARK  status: ('A' for Active; 'I' for Inactive)
ROOT
HETATM    1  N   LIG     1      -2.660   2.121   0.475  1.00  0.00    -0.101 NA
HETATM    2  C   LIG     1      -2.349   0.823  -0.056  1.00  0.00     0.071 A 
HETATM    3  C   LIG     1      -1.031   0.286  -0.056  1.00  0.00     0.031 A 
HETATM    4  C   LIG     1       0.088   0.996   0.427  1.00  0.00     0.004 A 
HETATM    5  C   LIG     1       1.361   0.410   0.405  1.00  0.00     0.018 A 
HETATM    6  C   LIG     1       2.487   1.099   0.885  1.00  0.00     0.002 A 
HETATM    7  C   LIG     1       3.746   0.491   0.851  1.00  0.00     0.000 A 
HETATM    8  C   LIG     1       3.890  -0.802   0.338  1.00  0.00     0.002 A 
HETATM    9  C   LIG     1       2.774  -1.494  -0.144  1.00  0.00     0.019 A 
HETATM   10  C   LIG     1       1.510  -0.893  -0.113  1.00  0.00     0.081 A 
HETATM   11  N   LIG     1       0.428  -1.562  -0.585  1.00  0.00    -0.246 NA
HETATM   12  C   LIG     1      -0.818  -1.019  -0.575  1.00  0.00     0.082 A 
HETATM   13  C   LIG     1      -1.887  -1.759  -1.087  1.00  0.00     0.019 A 
HETATM   14  C   LIG     1      -3.171  -1.221  -1.096  1.00  0.00     0.003 A 
HETATM   15  C   LIG     1      -3.401   0.057  -0.587  1.00  0.00     0.014 A 
ENDROOT
TORSDOF 0
