REMARK  6 active torsions:
REMARK  status: ('A' for Active; 'I' for Inactive)
REMARK    1  A    between atoms: C_3  and  N_4 
REMARK    2  A    between atoms: N_4  and  C_5 
REMARK       I    between atoms: N_4  and  C_11 
REMARK    3  A    between atoms: C_5  and  C_6 
REMARK    4  A    between atoms: C_6  and  O_7 
REMARK    5  A    between atoms: C_11  and  C_12 
REMARK    6  A    between atoms: C_12  and  O_13 
ROOT
HETATM    1  N   LIG     1       0.255   0.482   0.563  1.00  0.00    -0.290 N 
HETATM    2  C   LIG     1      -0.494   1.469   1.314  1.00  0.00     0.268 C 
HETATM    3  O   LIG     1       0.078   2.130   2.224  1.00  0.00    -0.269 OA
ENDROOT
BRANCH   1   4
HETATM    4  C   LIG     1      -0.442  -0.365  -0.377  1.00  0.00     0.055 A 
HETATM    5  C   LIG     1      -0.989  -1.601   0.051  1.00  0.00    -0.006 A 
HETATM    6  C   LIG     1      -0.901  -2.070   1.479  1.00  0.00     0.033 C 
HETATM    7  C   LIG     1      -1.641  -2.426  -0.876  1.00  0.00    -0.003 A 
HETATM    8  C   LIG     1      -1.762  -2.039  -2.209  1.00  0.00    -0.001 A 
HETATM    9  C   LIG     1      -1.244  -0.817  -2.632  1.00  0.00    -0.003 A 
HETATM   10  C   LIG     1      -0.600   0.038  -1.726  1.00  0.00    -0.006 A 
HETATM   11  C   LIG     1      -0.058   1.345  -2.236  1.00  0.00     0.033 C 
ENDBRANCH   1   4
BRANCH   1  12
HETATM   12  C   LIG     1       1.700   0.296   0.840  1.00  0.00     0.174 C 
HETATM   13  C   LIG     1       2.529   1.428   0.222  1.00  0.00     0.035 C 
BRANCH  12  14
HETATM   14  C   LIG     1       2.218  -1.047   0.382  1.00  0.00     0.293 C 
HETATM   15  O   LIG     1       2.357  -1.289  -0.850  1.00  0.00    -0.262 OA
BRANCH  14  16
HETATM   16  O   LIG     1       2.524  -2.023   1.334  1.00  0.00    -0.298 OA
HETATM   17  C   LIG     1       2.957  -3.329   0.977  1.00  0.00     0.185 C 
ENDBRANCH  14  16
ENDBRANCH  12  14
ENDBRANCH   1  12
BRANCH   2  18
HETATM   18  C   LIG     1      -1.972   1.683   1.091  1.00  0.00     0.230 C 
BRANCH  18  19
HETATM   19  O   LIG     1      -2.369   2.973   1.516  1.00  0.00    -0.342 OA
HETATM   20  C   LIG     1      -2.175   3.908   0.477  1.00  0.00     0.175 C 
ENDBRANCH  18  19
ENDBRANCH   2  18
TORSDOF 6
