REMARK  3 active torsions:
REMARK  status: ('A' for Active; 'I' for Inactive)
REMARK    1  A    between atoms: C_2  and  C_3 
REMARK    2  A    between atoms: C_2  and  C_9 
REMARK    3  A    between atoms: C_9  and  C_10 
ROOT
HETATM    1  O   LIG     1      -0.159   0.237  -1.742  1.00  0.00    -0.210 OA
HETATM    2  C   LIG     1       0.426  -0.724  -0.903  1.00  0.00     0.235 C 
ENDROOT
BRANCH   2   3
HETATM    3  C   LIG     1       1.772  -0.239  -0.404  1.00  0.00     0.015 A 
HETATM    4  C   LIG     1       1.882   0.957   0.328  1.00  0.00    -0.001 A 
HETATM    5  C   LIG     1       3.129   1.395   0.785  1.00  0.00    -0.000 A 
HETATM    6  C   LIG     1       4.276   0.645   0.515  1.00  0.00    -0.000 A 
HETATM    7  C   LIG     1       4.179  -0.544  -0.211  1.00  0.00    -0.000 A 
HETATM    8  C   LIG     1       2.934  -0.986  -0.669  1.00  0.00    -0.001 A 
ENDBRANCH   2   3
BRANCH   2   9
HETATM    9  C   LIG     1      -0.476  -1.083   0.259  1.00  0.00     0.207 C 
HETATM   10  O   LIG     1      -0.098  -2.005   1.032  1.00  0.00    -0.288 OA
BRANCH   9  11
HETATM   11  C   LIG     1      -1.810  -0.471   0.493  1.00  0.00     0.038 A 
HETATM   12  C   LIG     1      -2.038   0.909   0.327  1.00  0.00     0.003 A 
HETATM   13  C   LIG     1      -3.301   1.454   0.576  1.00  0.00     0.000 A 
HETATM   14  C   LIG     1      -4.348   0.634   1.002  1.00  0.00     0.000 A 
HETATM   15  C   LIG     1      -4.131  -0.733   1.187  1.00  0.00     0.000 A 
HETATM   16  C   LIG     1      -2.869  -1.283   0.940  1.00  0.00     0.003 A 
ENDBRANCH   9  11
ENDBRANCH   2   9
TORSDOF 3
