REMARK  1 active torsions:
REMARK  status: ('A' for Active; 'I' for Inactive)
REMARK    1  A    between atoms: N_2  and  C_3 
REMARK       I    between atoms: N_2  and  C_9 
ROOT
HETATM    1  C   LIG     1       0.558   0.057  -0.040  1.00  0.00     0.062 A 
HETATM    2  C   LIG     1       1.391   1.132  -0.399  1.00  0.00     0.017 A 
HETATM    3  C   LIG     1       2.782   0.990  -0.361  1.00  0.00     0.002 A 
HETATM    4  C   LIG     1       3.351  -0.223   0.036  1.00  0.00     0.000 A 
HETATM    5  C   LIG     1       2.531  -1.296   0.396  1.00  0.00     0.002 A 
HETATM    6  C   LIG     1       1.140  -1.158   0.359  1.00  0.00     0.017 A 
ENDROOT
BRANCH   1   7
HETATM    7  N   LIG     1      -0.875   0.203  -0.075  1.00  0.00    -0.297 N 
HETATM    8  C   LIG     1      -1.502   1.335   0.615  1.00  0.00     0.133 C 
HETATM    9  C   LIG     1      -1.683  -0.745  -0.809  1.00  0.00     0.238 C 
HETATM   10  C   LIG     1      -3.179  -0.733  -0.717  1.00  0.00     0.098 C 
HETATM   11  O   LIG     1      -1.131  -1.595  -1.560  1.00  0.00    -0.272 OA
ENDBRANCH   1   7
TORSDOF 1
