REMARK  2 active torsions:
REMARK  status: ('A' for Active; 'I' for Inactive)
REMARK    1  A    between atoms: C_3  and  C_4 
REMARK    2  A    between atoms: C_9  and  C_10 
ROOT
HETATM    1  N   LIG     1      -0.118  -1.708   0.511  1.00  0.00    -0.101 NA
HETATM    2  C   LIG     1      -0.023  -0.332   0.099  1.00  0.00     0.062 A 
HETATM    3  C   LIG     1       0.958   0.070  -0.849  1.00  0.00    -0.009 A 
HETATM    4  C   LIG     1       1.046   1.420  -1.224  1.00  0.00    -0.003 A 
HETATM    5  C   LIG     1       0.164   2.362  -0.706  1.00  0.00    -0.001 A 
HETATM    6  C   LIG     1      -0.811   1.978   0.209  1.00  0.00    -0.003 A 
HETATM    7  C   LIG     1      -0.909   0.643   0.636  1.00  0.00    -0.009 A 
ENDROOT
BRANCH   3   8
HETATM    8  C   LIG     1       1.939  -0.903  -1.464  1.00  0.00     0.027 C 
HETATM    9  C   LIG     1       3.165  -1.079  -0.573  1.00  0.00     0.005 C 
ENDBRANCH   3   8
BRANCH   7  10
HETATM   10  C   LIG     1      -1.981   0.298   1.645  1.00  0.00     0.027 C 
HETATM   11  C   LIG     1      -3.253  -0.179   0.949  1.00  0.00     0.005 C 
ENDBRANCH   7  10
TORSDOF 2
