REMARK  0 active torsions:
REMARK  status: ('A' for Active; 'I' for Inactive)
ROOT
HETATM    1  O   LIG     1      -3.130  -0.177  -0.448  1.00  0.00    -0.246 OA
HETATM    2  C   LIG     1      -1.886  -0.127  -0.233  1.00  0.00     0.335 A 
HETATM    3  N   LIG     1      -1.307   1.073   0.121  1.00  0.00    -0.263 N 
HETATM    4  C   LIG     1      -2.108   2.299   0.238  1.00  0.00     0.137 C 
HETATM    5  C   LIG     1       0.044   1.107   0.283  1.00  0.00     0.170 A 
HETATM    6  C   LIG     1       0.817   0.007   0.133  1.00  0.00     0.153 A 
HETATM    7  N   LIG     1       2.100   0.349   0.335  1.00  0.00    -0.302 N 
HETATM    8  C   LIG     1       3.289  -0.494   0.265  1.00  0.00     0.132 C 
HETATM    9  C   LIG     1       2.056   1.677   0.604  1.00  0.00     0.180 A 
HETATM   10  N   LIG     1       0.797   2.185   0.580  1.00  0.00    -0.206 NA
HETATM   11  N   LIG     1      -1.118  -1.273  -0.363  1.00  0.00    -0.246 N 
HETATM   12  C   LIG     1      -1.755  -2.541  -0.755  1.00  0.00     0.139 C 
HETATM   13  C   LIG     1       0.248  -1.214  -0.203  1.00  0.00     0.283 A 
HETATM   14  O   LIG     1       0.971  -2.235  -0.363  1.00  0.00    -0.265 OA
ENDROOT
TORSDOF 0
