REMARK  0 active torsions:
REMARK  status: ('A' for Active; 'I' for Inactive)
ROOT
HETATM    1  O   LIG     1       5.683  -1.395   1.846  1.00  0.00    -0.291 OA
HETATM    2  C   LIG     1       4.655  -1.011   1.228  1.00  0.00     0.172 C 
HETATM    3  C   LIG     1       4.341  -1.596  -0.117  1.00  0.00     0.070 C 
HETATM    4  C   LIG     1       2.867  -1.382  -0.494  1.00  0.00     0.012 C 
HETATM    5  C   LIG     1       2.392   0.084  -0.257  1.00  0.00     0.016 C 
HETATM    6  C   LIG     1       3.131   1.036  -1.229  1.00  0.00     0.004 C 
HETATM    7  C   LIG     1       2.727   0.515   1.180  1.00  0.00    -0.042 C 
HETATM    8  C   LIG     1       1.771   1.452   1.901  1.00  0.00     0.022 C 
HETATM    9  C   LIG     1       0.325   0.891   1.939  1.00  0.00     0.004 C 
HETATM   10  C   LIG     1       0.077  -0.168   0.839  1.00  0.00     0.001 C 
HETATM   11  C   LIG     1       0.837   0.226  -0.466  1.00  0.00     0.004 C 
HETATM   12  C   LIG     1       0.241  -0.491  -1.704  1.00  0.00     0.000 C 
HETATM   13  C   LIG     1      -1.248  -0.103  -1.947  1.00  0.00     0.002 C 
HETATM   14  C   LIG     1      -2.067   0.177  -0.633  1.00  0.00     0.026 C 
HETATM   15  C   LIG     1      -2.164   1.721  -0.398  1.00  0.00     0.002 C 
HETATM   16  C   LIG     1      -1.402  -0.547   0.551  1.00  0.00     0.002 C 
HETATM   17  C   LIG     1      -2.427  -0.532   1.679  1.00  0.00     0.003 C 
HETATM   18  C   LIG     1      -3.787  -0.554   0.958  1.00  0.00     0.030 C 
HETATM   19  C   LIG     1      -3.501  -0.461  -0.567  1.00  0.00     0.127 C 
HETATM   20  C   LIG     1      -4.609   0.350  -1.288  1.00  0.00     0.033 C 
HETATM   21  O   LIG     1      -3.477  -1.786  -1.064  1.00  0.00    -0.226 OA
HETATM   22  C   LIG     1       3.796   0.023   1.828  1.00  0.00     0.029 C 
ENDROOT
TORSDOF 0
