REMARK  2 active torsions:
REMARK  status: ('A' for Active; 'I' for Inactive)
REMARK    1  A    between atoms: N_3  and  C_4 
REMARK    2  A    between atoms: C_14  and  N_15 
ROOT
HETATM    1  O   LIG     1      -0.430  -1.785  -1.139  1.00  0.00    -0.264 OA
HETATM    2  C   LIG     1      -0.444  -0.787  -0.369  1.00  0.00     0.295 A 
HETATM    3  N   LIG     1       0.649  -0.075  -0.033  1.00  0.00    -0.213 N 
HETATM    4  N   LIG     1       0.272   0.921   0.767  1.00  0.00    -0.265 N 
HETATM    5  C   LIG     1       1.175   1.886   1.403  1.00  0.00     0.152 C 
HETATM    6  C   LIG     1      -1.076   0.864   0.934  1.00  0.00     0.075 A 
HETATM    7  C   LIG     1      -1.884   1.810   1.777  1.00  0.00     0.053 C 
HETATM    8  C   LIG     1      -1.564  -0.227   0.215  1.00  0.00     0.128 A 
ENDROOT
BRANCH   3   9
HETATM    9  C   LIG     1       1.983  -0.320  -0.512  1.00  0.00     0.084 A 
HETATM   10  C   LIG     1       2.580  -1.577  -0.326  1.00  0.00     0.019 A 
HETATM   11  C   LIG     1       3.869  -1.822  -0.810  1.00  0.00     0.002 A 
HETATM   12  C   LIG     1       4.564  -0.818  -1.490  1.00  0.00     0.000 A 
HETATM   13  C   LIG     1       3.971   0.432  -1.689  1.00  0.00     0.002 A 
HETATM   14  C   LIG     1       2.682   0.680  -1.206  1.00  0.00     0.019 A 
ENDBRANCH   3   9
BRANCH   8  15
HETATM   15  N   LIG     1      -2.928  -0.687   0.092  1.00  0.00    -0.340 N 
HETATM   16  C   LIG     1      -4.035   0.269   0.025  1.00  0.00     0.126 C 
HETATM   17  C   LIG     1      -3.200  -2.113  -0.097  1.00  0.00     0.126 C 
ENDBRANCH   8  15
TORSDOF 2
