REMARK  0 active torsions:
REMARK  status: ('A' for Active; 'I' for Inactive)
ROOT
HETATM    1  O   LIG     1      -1.096  -2.247  -0.439  1.00  0.00    -0.287 OA
HETATM    2  C   LIG     1      -0.844  -1.034  -0.201  1.00  0.00     0.192 A 
HETATM    3  C   LIG     1      -1.958  -0.066  -0.047  1.00  0.00     0.020 A 
HETATM    4  C   LIG     1      -3.381  -0.531  -0.199  1.00  0.00     0.035 C 
HETATM    5  C   LIG     1      -1.696   1.235   0.163  1.00  0.00     0.041 A 
HETATM    6  C   LIG     1       0.560  -0.575  -0.077  1.00  0.00     0.042 A 
HETATM    7  C   LIG     1       1.633  -1.476  -0.198  1.00  0.00     0.003 A 
HETATM    8  C   LIG     1       2.949  -1.024  -0.079  1.00  0.00     0.000 A 
HETATM    9  C   LIG     1       3.207   0.327   0.160  1.00  0.00     0.000 A 
HETATM   10  C   LIG     1       2.150   1.232   0.281  1.00  0.00     0.003 A 
HETATM   11  C   LIG     1       0.822   0.789   0.164  1.00  0.00     0.042 A 
HETATM   12  C   LIG     1      -0.314   1.730   0.286  1.00  0.00     0.196 A 
HETATM   13  O   LIG     1      -0.114   2.957   0.493  1.00  0.00    -0.287 OA
ENDROOT
TORSDOF 0
