REMARK  6 active torsions:
REMARK  status: ('A' for Active; 'I' for Inactive)
REMARK    1  A    between atoms: N_15  and  C_16 
REMARK    2  A    between atoms: C_16  and  C_17 
REMARK    3  A    between atoms: C_17  and  C_18 
REMARK    4  A    between atoms: C_18  and  N_19 
REMARK    5  A    between atoms: N_22  and  C_23 
REMARK    6  A    between atoms: C_23  and  C_24 
ROOT
HETATM    1 CL   LIG     1      -4.511  -3.332   3.726  1.00  0.00    -0.082 Cl
HETATM    2  C   LIG     1      -4.271  -1.846   2.825  1.00  0.00     0.059 A 
HETATM    3  C   LIG     1      -3.403  -1.828   1.727  1.00  0.00     0.029 A 
HETATM    4  C   LIG     1      -3.210  -0.641   0.998  1.00  0.00     0.067 A 
HETATM    5  C   LIG     1      -3.892   0.526   1.391  1.00  0.00     0.045 A 
HETATM    6  C   LIG     1      -4.777   0.497   2.473  1.00  0.00     0.009 A 
HETATM    7  C   LIG     1      -4.963  -0.687   3.191  1.00  0.00     0.012 A 
HETATM    8  S   LIG     1      -3.547   2.073   0.546  1.00  0.00    -0.084 SA
HETATM    9  C   LIG     1      -3.652   1.333  -1.086  1.00  0.00     0.045 A 
HETATM   10  C   LIG     1      -2.984   0.119  -1.337  1.00  0.00     0.066 A 
HETATM   11  C   LIG     1      -3.003  -0.419  -2.635  1.00  0.00     0.018 A 
HETATM   12  C   LIG     1      -3.676   0.249  -3.664  1.00  0.00     0.002 A 
HETATM   13  C   LIG     1      -4.351   1.444  -3.401  1.00  0.00     0.001 A 
HETATM   14  C   LIG     1      -4.344   1.984  -2.112  1.00  0.00     0.008 A 
HETATM   15  N   LIG     1      -2.443  -0.630  -0.227  1.00  0.00    -0.327 N 
ENDROOT
BRANCH  15  16
HETATM   16  C   LIG     1      -1.193  -1.396  -0.369  1.00  0.00     0.108 C 
BRANCH  16  17
HETATM   17  C   LIG     1      -0.187  -1.050   0.740  1.00  0.00     0.060 C 
BRANCH  17  18
HETATM   18  C   LIG     1       0.224   0.445   0.731  1.00  0.00     0.252 C 
BRANCH  18  19
HETATM   19  N   LIG     1       1.648   0.670   0.407  1.00  0.00     0.141 N 
HETATM   20  C   LIG     1       2.596   0.135   1.417  1.00  0.00     0.274 C 
HETATM   21  C   LIG     1       3.607  -0.873   0.833  1.00  0.00     0.133 C 
HETATM   22  N   LIG     1       4.276  -0.372  -0.390  1.00  0.00    -0.363 N 
HETATM   23  C   LIG     1       3.480   0.553  -1.225  1.00  0.00     0.133 C 
HETATM   24  C   LIG     1       1.981   0.358  -0.995  1.00  0.00     0.274 C 
BRANCH  22  25
HETATM   25  C   LIG     1       5.681   0.053  -0.205  1.00  0.00     0.133 C 
BRANCH  25  26
HETATM   26  C   LIG     1       5.865   1.174   0.836  1.00  0.00     0.206 C 
HETATM   27  O   LIG     1       7.197   1.611   0.837  1.00  0.00    -0.219 OA
ENDBRANCH  25  26
ENDBRANCH  22  25
ENDBRANCH  18  19
ENDBRANCH  17  18
ENDBRANCH  16  17
ENDBRANCH  15  16
TORSDOF 6
