REMARK  4 active torsions:
REMARK  status: ('A' for Active; 'I' for Inactive)
REMARK    1  A    between atoms: N_15  and  C_16 
REMARK    2  A    between atoms: C_16  and  C_17 
REMARK    3  A    between atoms: C_17  and  C_18 
REMARK    4  A    between atoms: C_18  and  N_19 
ROOT
HETATM    1 CL   LIG     1       2.872  -5.071  -0.772  1.00  0.00    -0.082 Cl
HETATM    2  C   LIG     1       3.506  -3.436  -0.844  1.00  0.00     0.059 A 
HETATM    3  C   LIG     1       2.634  -2.344  -0.767  1.00  0.00     0.029 A 
HETATM    4  C   LIG     1       3.132  -1.030  -0.813  1.00  0.00     0.067 A 
HETATM    5  C   LIG     1       4.520  -0.834  -0.958  1.00  0.00     0.045 A 
HETATM    6  C   LIG     1       5.390  -1.927  -1.009  1.00  0.00     0.009 A 
HETATM    7  C   LIG     1       4.883  -3.227  -0.953  1.00  0.00     0.012 A 
HETATM    8  S   LIG     1       5.160   0.823  -1.192  1.00  0.00    -0.084 SA
HETATM    9  C   LIG     1       4.179   1.511   0.141  1.00  0.00     0.045 A 
HETATM   10  C   LIG     1       2.808   1.202   0.224  1.00  0.00     0.066 A 
HETATM   11  C   LIG     1       2.012   1.884   1.163  1.00  0.00     0.018 A 
HETATM   12  C   LIG     1       2.586   2.821   2.027  1.00  0.00     0.002 A 
HETATM   13  C   LIG     1       3.957   3.084   1.968  1.00  0.00     0.001 A 
HETATM   14  C   LIG     1       4.753   2.432   1.024  1.00  0.00     0.008 A 
HETATM   15  N   LIG     1       2.275   0.111  -0.566  1.00  0.00    -0.327 N 
ENDROOT
BRANCH  15  16
HETATM   16  C   LIG     1       0.932   0.205  -1.162  1.00  0.00     0.108 C 
BRANCH  16  17
HETATM   17  C   LIG     1      -0.149  -0.409  -0.250  1.00  0.00     0.060 C 
BRANCH  17  18
HETATM   18  C   LIG     1      -1.455   0.393  -0.295  1.00  0.00     0.252 C 
BRANCH  18  19
HETATM   19  N   LIG     1      -2.460  -0.231   0.598  1.00  0.00     0.141 N 
HETATM   20  C   LIG     1      -3.293  -1.245  -0.081  1.00  0.00     0.285 C 
HETATM   21  C   LIG     1      -4.384  -0.623  -0.979  1.00  0.00     0.285 C 
HETATM   22  N   LIG     1      -5.186   0.402  -0.283  1.00  0.00     0.143 N 
HETATM   23  C   LIG     1      -4.335   1.403   0.388  1.00  0.00     0.285 C 
HETATM   24  C   LIG     1      -6.188  -0.188   0.622  1.00  0.00     0.285 C 
HETATM   25  C   LIG     1      -3.292   0.755   1.313  1.00  0.00     0.285 C 
ENDBRANCH  18  19
ENDBRANCH  17  18
ENDBRANCH  16  17
ENDBRANCH  15  16
TORSDOF 4
