REMARK  4 active torsions:
REMARK  status: ('A' for Active; 'I' for Inactive)
REMARK    1  A    between atoms: N_2  and  C_4 
REMARK    2  A    between atoms: C_4  and  C_5 
REMARK    3  A    between atoms: C_5  and  C_6 
REMARK    4  A    between atoms: C_6  and  N_7 
ROOT
HETATM    1  N   LIG     1      -0.912  -0.268  -0.185  1.00  0.00    -0.327 N 
HETATM    2  C   LIG     1      -2.023  -1.180  -0.030  1.00  0.00     0.066 A 
HETATM    3  C   LIG     1      -3.339  -0.702  -0.190  1.00  0.00     0.045 A 
HETATM    4  C   LIG     1      -4.432  -1.512   0.136  1.00  0.00     0.008 A 
HETATM    5  C   LIG     1      -4.223  -2.814   0.595  1.00  0.00     0.001 A 
HETATM    6  C   LIG     1      -2.924  -3.305   0.738  1.00  0.00     0.002 A 
HETATM    7  C   LIG     1      -1.827  -2.490   0.437  1.00  0.00     0.018 A 
HETATM    8  S   LIG     1      -3.611   0.921  -0.903  1.00  0.00    -0.084 SA
HETATM    9  C   LIG     1      -2.361   1.703   0.119  1.00  0.00     0.045 A 
HETATM   10  C   LIG     1      -1.098   1.097   0.250  1.00  0.00     0.066 A 
HETATM   11  C   LIG     1      -0.072   1.789   0.915  1.00  0.00     0.018 A 
HETATM   12  C   LIG     1      -0.316   3.050   1.468  1.00  0.00     0.002 A 
HETATM   13  C   LIG     1      -1.586   3.626   1.370  1.00  0.00     0.001 A 
HETATM   14  C   LIG     1      -2.609   2.954   0.695  1.00  0.00     0.008 A 
ENDROOT
BRANCH   1  15
HETATM   15  C   LIG     1       0.251  -0.622  -1.013  1.00  0.00     0.108 C 
BRANCH  15  16
HETATM   16  C   LIG     1       1.361  -1.295  -0.185  1.00  0.00     0.060 C 
BRANCH  16  17
HETATM   17  C   LIG     1       2.752  -1.062  -0.792  1.00  0.00     0.252 C 
BRANCH  17  18
HETATM   18  N   LIG     1       3.145   0.360  -0.679  1.00  0.00     0.141 N 
HETATM   19  C   LIG     1       4.017   0.747  -1.799  1.00  0.00     0.285 C 
HETATM   20  C   LIG     1       3.836   0.620   0.595  1.00  0.00     0.285 C 
ENDBRANCH  17  18
ENDBRANCH  16  17
ENDBRANCH  15  16
ENDBRANCH   1  15
TORSDOF 4
