REMARK  2 active torsions:
REMARK  status: ('A' for Active; 'I' for Inactive)
REMARK    1  A    between atoms: N9_10  and  C1*_11 
REMARK    2  A    between atoms: C4*_16  and  C5*_17 
ROOT
ATOM      1  O6    I A   1       5.066  -0.195  -2.421  1.00  0.00    -0.167 OA
ATOM      2  C6    I A   1       3.734   0.150  -2.209  1.00  0.00     0.235 A 
ATOM      3  N1    I A   1       3.049   0.869  -3.147  1.00  0.00    -0.196 NA
ATOM      4  C2    I A   1       1.734   1.214  -2.963  1.00  0.00     0.202 A 
ATOM      5  N3    I A   1       1.071   0.841  -1.827  1.00  0.00    -0.205 NA
ATOM      6  C4    I A   1       1.756   0.134  -0.895  1.00  0.00     0.170 A 
ATOM      7  C5    I A   1       3.051  -0.220  -1.056  1.00  0.00     0.161 A 
ATOM      8  N7    I A   1       3.476  -0.950  -0.007  1.00  0.00    -0.219 NA
ATOM      9  C8    I A   1       2.369  -1.009   0.785  1.00  0.00     0.182 A 
ATOM     10  N9    I A   1       1.302  -0.344   0.270  1.00  0.00    -0.270 N 
ENDROOT
BRANCH  10  11
ATOM     11  C1*   I A   1      -0.053  -0.285   0.821  1.00  0.00     0.241 C 
ATOM     12  C2*   I A   1      -0.955  -1.322   0.159  1.00  0.00     0.234 C 
ATOM     13  C3*   I A   1      -2.296  -0.630   0.156  1.00  0.00     0.216 C 
ATOM     14  O2*   I A   1      -0.968  -2.520   0.893  1.00  0.00    -0.216 OA
ATOM     15  C4*   I A   1      -1.874   0.835   0.032  1.00  0.00     0.183 C 
ATOM     16  O3*   I A   1      -2.980  -0.863   1.363  1.00  0.00    -0.218 OA
ATOM     17  O4*   I A   1      -0.604   1.001   0.626  1.00  0.00    -0.331 OA
BRANCH  15  18
ATOM     18  C5*   I A   1      -2.879   1.834   0.623  1.00  0.00     0.214 C 
ATOM     19  O5*   I A   1      -2.854   1.788   2.023  1.00  0.00    -0.218 OA
ENDBRANCH  15  18
ENDBRANCH  10  11
TORSDOF 2
