REMARK  0 active torsions:
REMARK  status: ('A' for Active; 'I' for Inactive)
ROOT
HETATM    1 BR   LIG     1      -3.958  -1.829  -0.060  1.00  0.00    -0.049 Br
HETATM    2  C   LIG     1      -2.351  -0.797  -0.056  1.00  0.00     0.035 A 
HETATM    3  C   LIG     1      -1.111  -1.436   0.047  1.00  0.00     0.007 A 
HETATM    4  C   LIG     1       0.072  -0.681   0.051  1.00  0.00     0.001 A 
HETATM    5  C   LIG     1       1.323  -1.310   0.153  1.00  0.00     0.000 A 
HETATM    6  C   LIG     1       2.494  -0.547   0.156  1.00  0.00     0.000 A 
HETATM    7  C   LIG     1       2.427   0.845   0.056  1.00  0.00     0.000 A 
HETATM    8  C   LIG     1       1.188   1.485  -0.047  1.00  0.00     0.000 A 
HETATM    9  C   LIG     1       0.004   0.731  -0.050  1.00  0.00     0.000 A 
HETATM   10  C   LIG     1      -1.246   1.360  -0.153  1.00  0.00     0.001 A 
HETATM   11  C   LIG     1      -2.417   0.597  -0.155  1.00  0.00     0.007 A 
ENDROOT
TORSDOF 0
