REMARK  0 active torsions:
REMARK  status: ('A' for Active; 'I' for Inactive)
ROOT
HETATM    1  O   LIG     1       3.451  -0.589  -0.403  1.00  0.00    -0.190 OA
HETATM    2  C   LIG     1       2.158  -0.103  -0.223  1.00  0.00     0.131 A 
HETATM    3  C   LIG     1       1.944   1.280  -0.164  1.00  0.00     0.029 A 
HETATM    4  C   LIG     1       0.654   1.788   0.016  1.00  0.00     0.021 A 
HETATM    5  C   LIG     1       1.074  -0.985  -0.102  1.00  0.00     0.029 A 
HETATM    6  C   LIG     1      -0.223  -0.482   0.079  1.00  0.00     0.020 A 
HETATM    7  C   LIG     1      -0.432   0.915   0.138  1.00  0.00     0.082 A 
HETATM    8  N   LIG     1      -1.689   1.406   0.313  1.00  0.00    -0.244 NA
HETATM    9  C   LIG     1      -2.766   0.585   0.435  1.00  0.00     0.099 A 
HETATM   10  C   LIG     1      -2.603  -0.801   0.383  1.00  0.00     0.021 A 
HETATM   11  C   LIG     1      -1.325  -1.337   0.204  1.00  0.00     0.003 A 
ENDROOT
TORSDOF 0
