REMARK  0 active torsions:
REMARK  status: ('A' for Active; 'I' for Inactive)
ROOT
HETATM    1  C   LIG     1      -2.821   1.130   0.575  1.00  0.00     0.030 C 
HETATM    2  C   LIG     1      -1.458   0.523   0.368  1.00  0.00    -0.026 A 
HETATM    3  C   LIG     1      -0.345   1.368   0.214  1.00  0.00    -0.004 A 
HETATM    4  C   LIG     1       0.936   0.835   0.020  1.00  0.00    -0.000 A 
HETATM    5  C   LIG     1       2.046   1.681  -0.134  1.00  0.00    -0.000 A 
HETATM    6  C   LIG     1       3.320   1.139  -0.327  1.00  0.00    -0.000 A 
HETATM    7  C   LIG     1       3.495  -0.247  -0.368  1.00  0.00    -0.000 A 
HETATM    8  C   LIG     1       2.398  -1.099  -0.216  1.00  0.00    -0.000 A 
HETATM    9  C   LIG     1       1.113  -0.567  -0.021  1.00  0.00    -0.000 A 
HETATM   10  C   LIG     1       0.006  -1.412   0.132  1.00  0.00    -0.004 A 
HETATM   11  C   LIG     1      -1.280  -0.881   0.327  1.00  0.00    -0.026 A 
HETATM   12  C   LIG     1      -2.448  -1.820   0.488  1.00  0.00     0.030 C 
ENDROOT
TORSDOF 0
