REMARK  0 active torsions:
REMARK  status: ('A' for Active; 'I' for Inactive)
ROOT
HETATM    1  C   LIG     1       3.954   0.090   0.634  1.00  0.00     0.031 C 
HETATM    2  C   LIG     1       2.529   0.001   0.173  1.00  0.00    -0.022 A 
HETATM    3  C   LIG     1       1.489   0.224   1.087  1.00  0.00    -0.004 A 
HETATM    4  C   LIG     1       0.151   0.145   0.673  1.00  0.00    -0.000 A 
HETATM    5  C   LIG     1      -0.894   0.372   1.581  1.00  0.00    -0.000 A 
HETATM    6  C   LIG     1      -2.223   0.291   1.158  1.00  0.00    -0.004 A 
HETATM    7  C   LIG     1      -2.528  -0.030  -0.173  1.00  0.00    -0.022 A 
HETATM    8  C   LIG     1      -3.956  -0.077  -0.629  1.00  0.00     0.031 C 
HETATM    9  C   LIG     1      -1.487  -0.241  -1.091  1.00  0.00    -0.004 A 
HETATM   10  C   LIG     1      -0.149  -0.162  -0.676  1.00  0.00    -0.000 A 
HETATM   11  C   LIG     1       0.895  -0.382  -1.585  1.00  0.00    -0.000 A 
HETATM   12  C   LIG     1       2.225  -0.302  -1.163  1.00  0.00    -0.004 A 
ENDROOT
TORSDOF 0
