REMARK  4 active torsions:
REMARK  status: ('A' for Active; 'I' for Inactive)
REMARK    1  A    between atoms: C_2  and  C_5 
REMARK    2  A    between atoms: C_2  and  O_3 
REMARK    3  A    between atoms: C_6  and  C_7 
REMARK    4  A    between atoms: C_7  and  O_8 
ROOT
HETATM    1  C   LIG     1      -0.766  -0.224  -0.768  1.00  0.00     0.100 C 
HETATM    2  C   LIG     1       0.273  -0.030   0.387  1.00  0.00     0.100 C 
HETATM    3  C   LIG     1      -1.000  -1.759  -0.735  1.00  0.00     0.032 C 
HETATM    4  C   LIG     1      -0.859  -2.075   0.745  1.00  0.00     0.010 C 
HETATM    5  C   LIG     1       0.537  -1.490   0.836  1.00  0.00     0.032 C 
HETATM    6  C   LIG     1       1.192  -2.236  -0.301  1.00  0.00    -0.030 C 
HETATM    7  C   LIG     1       0.265  -2.401  -1.244  1.00  0.00    -0.030 C 
ENDROOT
BRANCH   1   8
HETATM    8  C   LIG     1      -2.016   0.588  -0.534  1.00  0.00     0.272 C 
HETATM    9  O   LIG     1      -3.101   0.030  -0.212  1.00  0.00    -0.264 OA
BRANCH   8  10
HETATM   10  O   LIG     1      -1.948   1.978  -0.667  1.00  0.00    -0.299 OA
HETATM   11  C   LIG     1      -3.071   2.824  -0.449  1.00  0.00     0.184 C 
ENDBRANCH   8  10
ENDBRANCH   1   8
BRANCH   2  12
HETATM   12  C   LIG     1       1.544   0.692   0.007  1.00  0.00     0.272 C 
HETATM   13  O   LIG     1       1.693   1.185  -1.145  1.00  0.00    -0.264 OA
BRANCH  12  14
HETATM   14  O   LIG     1       2.555   0.820   0.963  1.00  0.00    -0.299 OA
HETATM   15  C   LIG     1       3.788   1.476   0.693  1.00  0.00     0.184 C 
ENDBRANCH  12  14
ENDBRANCH   2  12
TORSDOF 4
