REMARK  0 active torsions:
REMARK  status: ('A' for Active; 'I' for Inactive)
ROOT
HETATM    1 BR   LIG     1       3.083  -0.938   0.003  1.00  0.00    -0.048 Br
HETATM    2  C   LIG     1       1.246  -0.392   0.002  1.00  0.00     0.041 A 
HETATM    3  C   LIG     1       0.253  -1.379   0.056  1.00  0.00     0.007 A 
HETATM    4  C   LIG     1      -1.098  -1.019   0.057  1.00  0.00     0.001 A 
HETATM    5  C   LIG     1      -1.463   0.328   0.004  1.00  0.00     0.001 A 
HETATM    6  C   LIG     1      -0.477   1.318  -0.051  1.00  0.00     0.007 A 
HETATM    7  C   LIG     1       0.878   0.965  -0.052  1.00  0.00     0.041 A 
HETATM    8 BR   LIG     1       2.189   2.361  -0.128  1.00  0.00    -0.048 Br
ENDROOT
TORSDOF 0
