REMARK  0 active torsions:
REMARK  status: ('A' for Active; 'I' for Inactive)
ROOT
HETATM    1  C   LIG     1      -1.708  -1.033  -0.001  1.00  0.00     0.032 C 
HETATM    2  C   LIG     1      -0.293  -0.523   0.053  1.00  0.00    -0.008 A 
HETATM    3  C   LIG     1       0.764  -1.417   0.291  1.00  0.00    -0.002 A 
HETATM    4  C   LIG     1       2.078  -0.953   0.343  1.00  0.00     0.020 A 
HETATM    5  C   LIG     1       2.331   0.405   0.156  1.00  0.00     0.099 A 
HETATM    6  N   LIG     1       1.304   1.263  -0.073  1.00  0.00    -0.249 NA
HETATM    7  C   LIG     1       0.008   0.846  -0.130  1.00  0.00     0.056 A 
HETATM    8  C   LIG     1      -1.065   1.862  -0.388  1.00  0.00     0.052 C 
ENDROOT
TORSDOF 0
