REMARK  0 active torsions:
REMARK  status: ('A' for Active; 'I' for Inactive)
ROOT
HETATM    1  C   LIG     1       2.417  -0.464   0.278  1.00  0.00     0.008 C 
HETATM    2  C   LIG     1       0.975  -0.101  -0.105  1.00  0.00     0.058 C 
HETATM    3  C   LIG     1       0.011  -1.255   0.239  1.00  0.00     0.007 C 
HETATM    4  C   LIG     1      -1.485  -0.908   0.022  1.00  0.00     0.001 C 
HETATM    5  C   LIG     1      -1.741   0.553  -0.393  1.00  0.00     0.008 C 
HETATM    6  C   LIG     1      -0.964   1.540   0.486  1.00  0.00     0.065 C 
HETATM    7  C   LIG     1       0.492   1.166   0.569  1.00  0.00     0.150 C 
HETATM    8  O   LIG     1       1.258   1.879   1.201  1.00  0.00    -0.296 OA
ENDROOT
TORSDOF 0
