REMARK  0 active torsions:
REMARK  status: ('A' for Active; 'I' for Inactive)
ROOT
HETATM    1  C   LIG     1      -1.749  -0.867   0.064  1.00  0.00     0.031 C 
HETATM    2  C   LIG     1      -0.625   0.135   0.038  1.00  0.00    -0.023 A 
HETATM    3  C   LIG     1      -0.919   1.506   0.102  1.00  0.00     0.016 A 
HETATM    4  C   LIG     1       0.118   2.438   0.079  1.00  0.00     0.099 A 
HETATM    5  N   LIG     1       1.408   2.022  -0.005  1.00  0.00    -0.243 NA
HETATM    6  C   LIG     1       1.731   0.704  -0.068  1.00  0.00     0.094 A 
HETATM    7  C   LIG     1       0.725  -0.277  -0.049  1.00  0.00    -0.007 A 
HETATM    8  C   LIG     1       1.102  -1.733  -0.120  1.00  0.00     0.032 C 
ENDROOT
TORSDOF 0
