REMARK  5 active torsions:
REMARK  status: ('A' for Active; 'I' for Inactive)
REMARK    1  A    between atoms: C_2  and  C_7 
REMARK    2  A    between atoms: C_2  and  O_3 
REMARK    3  A    between atoms: O_3  and  C_4 
REMARK    4  A    between atoms: C_7  and  C_8 
REMARK    5  A    between atoms: C_7  and  C_16 
ROOT
HETATM    1  C   LIG     1      -0.232  -0.786   0.930  1.00  0.00     0.241 C 
HETATM    2  O   LIG     1      -0.170  -1.316   2.236  1.00  0.00    -0.207 OA
ENDROOT
BRANCH   1   3
HETATM    3  C   LIG     1       1.161  -0.914   0.333  1.00  0.00     0.308 C 
HETATM    4  O   LIG     1       1.582  -2.046  -0.035  1.00  0.00    -0.261 OA
BRANCH   3   5
HETATM    5  O   LIG     1       2.005   0.203   0.272  1.00  0.00    -0.302 OA
BRANCH   5   6
HETATM    6  C   LIG     1       3.276   0.198  -0.378  1.00  0.00     0.124 C 
HETATM    7  C   LIG     1       4.056   1.436   0.058  1.00  0.00     0.033 C 
HETATM    8  C   LIG     1       3.088   0.191  -1.898  1.00  0.00     0.033 C 
ENDBRANCH   5   6
ENDBRANCH   3   5
ENDBRANCH   1   3
BRANCH   1   9
HETATM    9  C   LIG     1      -1.292  -1.542   0.117  1.00  0.00     0.018 A 
HETATM   10  C   LIG     1      -2.472  -1.984   0.750  1.00  0.00    -0.000 A 
HETATM   11  C   LIG     1      -3.476  -2.628   0.022  1.00  0.00     0.011 A 
HETATM   12  C   LIG     1      -3.331  -2.821  -1.353  1.00  0.00     0.058 A 
HETATM   13  C   LIG     1      -2.184  -2.361  -2.003  1.00  0.00     0.011 A 
HETATM   14 CL   LIG     1      -4.595  -3.625  -2.266  1.00  0.00    -0.082 Cl
HETATM   15  C   LIG     1      -1.176  -1.717  -1.280  1.00  0.00    -0.000 A 
ENDBRANCH   1   9
BRANCH   1  16
HETATM   16  C   LIG     1      -0.653   0.684   0.987  1.00  0.00     0.018 A 
HETATM   17  C   LIG     1      -1.065   1.289   2.195  1.00  0.00    -0.000 A 
HETATM   18  C   LIG     1      -1.462   2.629   2.222  1.00  0.00     0.011 A 
HETATM   19  C   LIG     1      -1.462   3.386   1.049  1.00  0.00     0.058 A 
HETATM   20  C   LIG     1      -1.068   2.802  -0.156  1.00  0.00     0.011 A 
HETATM   21 CL   LIG     1      -1.961   5.067   1.089  1.00  0.00    -0.082 Cl
HETATM   22  C   LIG     1      -0.671   1.463  -0.190  1.00  0.00    -0.000 A 
ENDBRANCH   1  16
TORSDOF 5
