REMARK  2 active torsions:
REMARK  status: ('A' for Active; 'I' for Inactive)
REMARK    1  A    between atoms: C_2  and  C_3 
REMARK    2  A    between atoms: C_3  and  C_5 
ROOT
HETATM    1  C   LIG     1       0.047   0.658  -0.302  1.00  0.00     0.152 C 
HETATM    2  O   LIG     1       0.227   0.686  -1.696  1.00  0.00    -0.224 OA
ENDROOT
BRANCH   1   3
HETATM    3  C   LIG     1      -1.443   0.454   0.045  1.00  0.00     0.033 C 
HETATM    4  C   LIG     1      -2.046  -0.815  -0.562  1.00  0.00     0.003 C 
ENDBRANCH   1   3
BRANCH   1   5
HETATM    5  C   LIG     1       0.939  -0.435   0.314  1.00  0.00     0.033 C 
HETATM    6  C   LIG     1       2.422  -0.096   0.177  1.00  0.00     0.003 C 
ENDBRANCH   1   5
TORSDOF 2
