REMARK  0 active torsions:
REMARK  status: ('A' for Active; 'I' for Inactive)
ROOT
HETATM    1  C   LIG     1       2.607   0.071   0.248  1.00  0.00     0.000 C 
HETATM    2  C   LIG     1       1.170   0.015  -0.282  1.00  0.00     0.000 C 
HETATM    3  C   LIG     1       0.433  -1.215   0.283  1.00  0.00     0.003 C 
HETATM    4  C   LIG     1      -1.016  -1.266  -0.217  1.00  0.00     0.033 C 
HETATM    5  C   LIG     1       0.412   1.308   0.073  1.00  0.00     0.003 C 
HETATM    6  C   LIG     1      -1.037   1.252  -0.427  1.00  0.00     0.033 C 
HETATM    7  C   LIG     1      -1.771   0.027   0.139  1.00  0.00     0.152 C 
HETATM    8  O   LIG     1      -3.069  -0.016  -0.394  1.00  0.00    -0.224 OA
ENDROOT
TORSDOF 0
