REMARK  0 active torsions:
REMARK  status: ('A' for Active; 'I' for Inactive)
ROOT
HETATM    1  C   LIG     1       2.916   0.075  -0.080  1.00  0.00     0.000 C 
HETATM    2  C   LIG     1       1.409  -0.072  -0.313  1.00  0.00     0.000 C 
HETATM    3  C   LIG     1       0.696   1.279  -0.111  1.00  0.00     0.000 C 
HETATM    4  C   LIG     1      -0.818   1.140  -0.317  1.00  0.00     0.000 C 
HETATM    5  C   LIG     1      -1.409   0.072   0.623  1.00  0.00     0.000 C 
HETATM    6  C   LIG     1      -2.916  -0.075   0.390  1.00  0.00     0.000 C 
HETATM    7  C   LIG     1      -0.696  -1.279   0.421  1.00  0.00     0.000 C 
HETATM    8  C   LIG     1       0.818  -1.140   0.627  1.00  0.00     0.000 C 
ENDROOT
TORSDOF 0
