REMARK  1 active torsions:
REMARK  status: ('A' for Active; 'I' for Inactive)
REMARK    1  A    between atoms: C_2  and  C_3 
ROOT
HETATM    1  C   LIG     1       1.223  -0.101  -0.274  1.00  0.00     0.011 A 
HETATM    2  C   LIG     1       0.590   1.121  -0.548  1.00  0.00    -0.002 A 
HETATM    3  C   LIG     1      -0.805   1.214  -0.524  1.00  0.00    -0.004 A 
HETATM    4  C   LIG     1      -1.585   0.083  -0.240  1.00  0.00    -0.022 A 
HETATM    5  C   LIG     1      -3.080   0.192  -0.176  1.00  0.00     0.031 C 
HETATM    6  C   LIG     1      -0.952  -1.135   0.050  1.00  0.00    -0.004 A 
HETATM    7  C   LIG     1       0.443  -1.228   0.027  1.00  0.00    -0.002 A 
ENDROOT
BRANCH   1   8
HETATM    8  C   LIG     1       2.724  -0.210  -0.298  1.00  0.00     0.209 C 
HETATM    9  O   LIG     1       3.207  -0.565   0.969  1.00  0.00    -0.215 OA
ENDBRANCH   1   8
TORSDOF 1
