REMARK  0 active torsions:
REMARK  status: ('A' for Active; 'I' for Inactive)
ROOT
HETATM    1  C   LIG     1      -2.816  -0.204   0.146  1.00  0.00     0.033 C 
HETATM    2  C   LIG     1      -1.320  -0.102   0.132  1.00  0.00    -0.003 A 
HETATM    3  C   LIG     1      -0.639   0.066  -1.080  1.00  0.00    -0.002 A 
HETATM    4  C   LIG     1       0.754   0.161  -1.093  1.00  0.00     0.014 A 
HETATM    5  C   LIG     1       1.458   0.087   0.115  1.00  0.00     0.059 A 
HETATM    6  C   LIG     1       2.950   0.186   0.127  1.00  0.00     0.052 C 
HETATM    7  N   LIG     1       0.779  -0.077   1.284  1.00  0.00    -0.249 NA
HETATM    8  C   LIG     1      -0.577  -0.172   1.320  1.00  0.00     0.094 A 
ENDROOT
TORSDOF 0
