REMARK  4 active torsions:
REMARK  status: ('A' for Active; 'I' for Inactive)
REMARK    1  A    between atoms: C_2  and  C_3 
REMARK    2  A    between atoms: C_3  and  C_5 
REMARK    3  A    between atoms: C_5  and  C_6 
REMARK    4  A    between atoms: C_6  and  C_7 
ROOT
HETATM    1  C   LIG     1       1.318  -0.038   0.406  1.00  0.00     0.152 C 
HETATM    2  O   LIG     1       2.043   0.762   1.307  1.00  0.00    -0.224 OA
ENDROOT
BRANCH   1   3
HETATM    3  C   LIG     1       1.775   0.228  -1.045  1.00  0.00     0.033 C 
HETATM    4  C   LIG     1       3.273  -0.013  -1.222  1.00  0.00     0.003 C 
ENDBRANCH   1   3
BRANCH   1   5
HETATM    5  C   LIG     1      -0.195   0.204   0.598  1.00  0.00     0.033 C 
BRANCH   5   6
HETATM    6  C   LIG     1      -1.064  -0.850  -0.113  1.00  0.00     0.003 C 
BRANCH   6   7
HETATM    7  C   LIG     1      -2.542  -0.769   0.299  1.00  0.00     0.000 C 
HETATM    8  C   LIG     1      -3.229   0.497  -0.212  1.00  0.00     0.000 C 
ENDBRANCH   6   7
ENDBRANCH   5   6
ENDBRANCH   1   5
TORSDOF 4
