REMARK  4 active torsions:
REMARK  status: ('A' for Active; 'I' for Inactive)
REMARK    1  A    between atoms: C_2  and  C_3 
REMARK    2  A    between atoms: C_3  and  C_4 
REMARK    3  A    between atoms: C_4  and  C_6 
REMARK    4  A    between atoms: C_6  and  C_7 
ROOT
HETATM    1  C   LIG     1      -0.367   0.001  -0.932  1.00  0.00     0.152 C 
HETATM    2  O   LIG     1      -0.042   1.274  -1.430  1.00  0.00    -0.224 OA
ENDROOT
BRANCH   1   3
HETATM    3  C   LIG     1       0.862  -0.932  -0.994  1.00  0.00     0.033 C 
BRANCH   3   4
HETATM    4  C   LIG     1       2.083  -0.391  -0.232  1.00  0.00     0.003 C 
HETATM    5  C   LIG     1       3.295  -1.298  -0.423  1.00  0.00     0.000 C 
ENDBRANCH   3   4
ENDBRANCH   1   3
BRANCH   1   6
HETATM    6  C   LIG     1      -0.925   0.130   0.497  1.00  0.00     0.033 C 
BRANCH   6   7
HETATM    7  C   LIG     1      -2.286   0.840   0.506  1.00  0.00     0.003 C 
HETATM    8  C   LIG     1      -2.835   0.961   1.925  1.00  0.00     0.000 C 
ENDBRANCH   6   7
ENDBRANCH   1   6
TORSDOF 4
