REMARK  0 active torsions:
REMARK  status: ('A' for Active; 'I' for Inactive)
ROOT
HETATM    1  C   LIG     1      -2.414   0.725  -0.028  1.00  0.00     0.002 A 
HETATM    2  C   LIG     1      -2.435  -0.671  -0.089  1.00  0.00     0.000 A 
HETATM    3  C   LIG     1      -1.238  -1.393  -0.091  1.00  0.00     0.002 A 
HETATM    4  C   LIG     1      -0.011  -0.717  -0.031  1.00  0.00     0.018 A 
HETATM    5  C   LIG     1       1.201  -1.417  -0.032  1.00  0.00     0.006 A 
HETATM    6  C   LIG     1       2.407  -0.718   0.028  1.00  0.00     0.063 A 
HETATM    7  C   LIG     1       2.393   0.679   0.088  1.00  0.00     0.279 A 
HETATM    8  O   LIG     1       3.480   1.313   0.143  1.00  0.00    -0.265 OA
HETATM    9  N   LIG     1       1.209   1.354   0.088  1.00  0.00    -0.208 NA
HETATM   10  C   LIG     1       0.014   0.696   0.030  1.00  0.00     0.085 A 
HETATM   11  C   LIG     1      -1.196   1.409   0.032  1.00  0.00     0.019 A 
ENDROOT
TORSDOF 0
