REMARK  7 active torsions:
REMARK  status: ('A' for Active; 'I' for Inactive)
REMARK    1  A    between atoms: C_2  and  C_3 
REMARK    2  A    between atoms: C_2  and  O_10 
REMARK    3  A    between atoms: O_10  and  C_11 
REMARK    4  A    between atoms: C_11  and  C_12 
REMARK    5  A    between atoms: C_12  and  N_13 
REMARK    6  A    between atoms: N_13  and  C_14 
REMARK    7  A    between atoms: N_13  and  C_16 
ROOT
HETATM    1  O   LIG     1       0.834   1.355  -0.844  1.00  0.00    -0.259 OA
HETATM    2  C   LIG     1       1.290   0.219  -0.535  1.00  0.00     0.296 C 
ENDROOT
BRANCH   2   3
HETATM    3  C   LIG     1       2.749   0.015  -0.412  1.00  0.00     0.063 A 
HETATM    4  C   LIG     1       3.645   1.076  -0.636  1.00  0.00     0.006 A 
HETATM    5  C   LIG     1       5.024   0.876  -0.518  1.00  0.00     0.014 A 
HETATM    6  C   LIG     1       5.529  -0.384  -0.174  1.00  0.00     0.070 A 
HETATM    7  C   LIG     1       4.642  -1.445   0.051  1.00  0.00     0.014 A 
HETATM    8  N   LIG     1       6.939  -0.587  -0.053  1.00  0.00    -0.101 NA
HETATM    9  C   LIG     1       3.262  -1.248  -0.067  1.00  0.00     0.006 A 
ENDBRANCH   2   3
BRANCH   2  10
HETATM   10  O   LIG     1       0.415  -0.853  -0.314  1.00  0.00    -0.296 OA
BRANCH  10  11
HETATM   11  C   LIG     1      -1.006  -0.734  -0.359  1.00  0.00     0.176 C 
BRANCH  11  12
HETATM   12  C   LIG     1      -1.530  -0.076   0.935  1.00  0.00     0.130 C 
BRANCH  12  13
HETATM   13  N   LIG     1      -2.978   0.246   0.922  1.00  0.00    -0.366 N 
BRANCH  13  14
HETATM   14  C   LIG     1      -3.302   1.638   0.527  1.00  0.00     0.097 C 
HETATM   15  C   LIG     1      -2.949   1.984  -0.921  1.00  0.00     0.026 C 
ENDBRANCH  13  14
BRANCH  13  16
HETATM   16  C   LIG     1      -3.851  -0.808   0.360  1.00  0.00     0.097 C 
HETATM   17  C   LIG     1      -5.273  -0.719   0.913  1.00  0.00     0.026 C 
ENDBRANCH  13  16
ENDBRANCH  12  13
ENDBRANCH  11  12
ENDBRANCH  10  11
ENDBRANCH   2  10
TORSDOF 7
