REMARK  0 active torsions:
REMARK  status: ('A' for Active; 'I' for Inactive)
ROOT
HETATM    1  C   LIG     1      -1.958  -1.254  -0.086  1.00  0.00     0.032 C 
HETATM    2  C   LIG     1      -0.766  -0.340  -0.026  1.00  0.00    -0.009 A 
HETATM    3  C   LIG     1       0.532  -0.880  -0.033  1.00  0.00     0.024 A 
HETATM    4  C   LIG     1       1.652  -0.039   0.022  1.00  0.00     0.131 A 
HETATM    5  O   LIG     1       2.940  -0.570   0.015  1.00  0.00    -0.190 OA
HETATM    6  C   LIG     1       1.478   1.346   0.083  1.00  0.00     0.028 A 
HETATM    7  C   LIG     1       0.193   1.893   0.090  1.00  0.00     0.013 A 
HETATM    8  C   LIG     1      -0.930   1.059   0.036  1.00  0.00     0.054 A 
HETATM    9 CL   LIG     1      -2.528   1.798   0.047  1.00  0.00    -0.083 Cl
ENDROOT
TORSDOF 0
