REMARK  1 active torsions:
REMARK  status: ('A' for Active; 'I' for Inactive)
REMARK    1  A    between atoms: C_2  and  C_4 
ROOT
HETATM    1  C   LIG     1       0.526  -0.334   0.045  1.00  0.00     0.084 A 
HETATM    2  C   LIG     1      -0.298  -1.392   0.467  1.00  0.00     0.105 A 
HETATM    3  N   LIG     1      -1.651  -1.250   0.474  1.00  0.00    -0.242 NA
HETATM    4  C   LIG     1      -2.252  -0.100   0.073  1.00  0.00     0.099 A 
HETATM    5  C   LIG     1      -1.478   0.975  -0.365  1.00  0.00     0.021 A 
HETATM    6  C   LIG     1      -0.087   0.857  -0.382  1.00  0.00     0.009 A 
ENDROOT
BRANCH   1   7
HETATM    7  C   LIG     1       2.001  -0.494   0.035  1.00  0.00     0.212 C 
HETATM    8  O   LIG     1       2.503  -1.649   0.035  1.00  0.00    -0.644 OA
HETATM    9  O   LIG     1       2.861   0.604   0.039  1.00  0.00    -0.644 OA
ENDBRANCH   1   7
TORSDOF 1
