REMARK  3 active torsions:
REMARK  status: ('A' for Active; 'I' for Inactive)
REMARK    1  A    between atoms: C_2  and  CA_3 
REMARK    2  A    between atoms: CA_3  and  C_5 
REMARK    3  A    between atoms: C_5  and  C_6 
ROOT
HETATM    1  C   LIG     1       0.258  -0.600  -0.198  1.00  0.00    -0.017 A 
HETATM    2  C   LIG     1       0.746  -0.272  -1.470  1.00  0.00    -0.002 A 
HETATM    3  C   LIG     1       2.027   0.264  -1.617  1.00  0.00     0.029 A 
HETATM    4  C   LIG     1       2.844   0.478  -0.501  1.00  0.00     0.156 A 
HETATM    5  O   LIG     1       4.113   1.018  -0.716  1.00  0.00    -0.188 OA
HETATM    6  C   LIG     1       2.362   0.145   0.787  1.00  0.00     0.156 A 
HETATM    7  O   LIG     1       3.119   0.326   1.946  1.00  0.00    -0.188 OA
HETATM    8  C   LIG     1       1.075  -0.392   0.924  1.00  0.00     0.025 A 
ENDROOT
BRANCH   1   9
HETATM    9  C   LIG     1      -1.127  -1.176  -0.035  1.00  0.00     0.077 C 
BRANCH   9  10
HETATM   10  CA  LIG     1      -2.090  -0.187   0.650  1.00  0.00     0.391 C 
HETATM   11  N   LIG     1      -3.390  -0.824   0.867  1.00  0.00     0.628 N 
BRANCH  10  12
HETATM   12  C   LIG     1      -2.245   1.089  -0.148  1.00  0.00     0.224 C 
HETATM   13  O   LIG     1      -2.720   1.071  -1.457  1.00  0.00    -0.646 OA
HETATM   14  OXT LIG     1      -1.940   2.192   0.378  1.00  0.00    -0.646 OA
ENDBRANCH  10  12
ENDBRANCH   9  10
ENDBRANCH   1   9
TORSDOF 3
