REMARK  0 active torsions:
REMARK  status: ('A' for Active; 'I' for Inactive)
ROOT
HETATM    1  I   LIG     1      -1.751   1.552   0.733  1.00  0.00    -0.042 I 
HETATM    2  C   LIG     1      -0.675  -0.242   0.395  1.00  0.00     0.042 C 
HETATM    3  C   LIG     1       0.646  -0.294   0.194  1.00  0.00     0.042 C 
HETATM    4  I   LIG     1       1.909   1.407   0.178  1.00  0.00    -0.042 I 
ENDROOT
TORSDOF 0
