REMARK  2 active torsions:
REMARK  status: ('A' for Active; 'I' for Inactive)
REMARK    1  A    between atoms: C_2  and  C_5 
REMARK    2  A    between atoms: C_5  and  C_6 
ROOT
HETATM    1  C   LIG     1      -1.451   1.160   0.518  1.00  0.00     0.033 C 
HETATM    2  C   LIG     1      -0.964  -0.279   0.242  1.00  0.00     0.127 C 
HETATM    3  C   LIG     1      -1.996  -1.004  -0.645  1.00  0.00     0.033 C 
HETATM    4  O   LIG     1      -0.819  -0.979   1.455  1.00  0.00    -0.226 OA
ENDROOT
BRANCH   2   5
HETATM    5  C   LIG     1       0.401  -0.269  -0.494  1.00  0.00     0.030 C 
BRANCH   5   6
HETATM    6  C   LIG     1       1.544   0.355   0.326  1.00  0.00     0.003 C 
HETATM    7  C   LIG     1       2.881   0.208  -0.395  1.00  0.00     0.000 C 
ENDBRANCH   5   6
ENDBRANCH   2   5
TORSDOF 2
