REMARK  0 active torsions:
REMARK  status: ('A' for Active; 'I' for Inactive)
ROOT
HETATM    1 BR   LIG     1       1.767   1.315   0.010  1.00  0.00    -0.048 Br
HETATM    2  C   LIG     1       0.658  -0.250   0.018  1.00  0.00     0.048 C 
HETATM    3  C   LIG     1      -0.677  -0.192  -0.010  1.00  0.00     0.048 C 
HETATM    4 BR   LIG     1      -1.647   1.461  -0.060  1.00  0.00    -0.048 Br
ENDROOT
TORSDOF 0
