REMARK  1 active torsions:
REMARK  status: ('A' for Active; 'I' for Inactive)
REMARK    1  A    between atoms: N_3  and  C_4 
ROOT
HETATM    1  O   LIG     1       0.007  -0.867   2.012  1.00  0.00    -0.266 OA
HETATM    2  C   LIG     1       0.560  -0.412   0.978  1.00  0.00     0.276 A 
HETATM    3  N   LIG     1      -0.173  -0.044  -0.145  1.00  0.00    -0.251 N 
HETATM    4  C   LIG     1       1.957  -0.309   1.004  1.00  0.00     0.128 A 
HETATM    5 CL   LIG     1       2.850  -0.758   2.462  1.00  0.00    -0.076 Cl
HETATM    6  C   LIG     1       2.624   0.136  -0.133  1.00  0.00     0.079 A 
HETATM    7  C   LIG     1       4.124   0.257  -0.155  1.00  0.00     0.053 C 
HETATM    8  N   LIG     1       1.906   0.422  -1.244  1.00  0.00    -0.196 NA
HETATM    9  C   LIG     1       0.549   0.326  -1.272  1.00  0.00     0.352 A 
HETATM   10  O   LIG     1      -0.028   0.575  -2.364  1.00  0.00    -0.244 OA
ENDROOT
BRANCH   3  11
HETATM   11  C   LIG     1      -1.691  -0.067  -0.211  1.00  0.00     0.076 C 
HETATM   12  C   LIG     1      -2.235   1.305  -0.702  1.00  0.00     0.023 C 
HETATM   13  C   LIG     1      -2.402  -0.326   1.148  1.00  0.00     0.023 C 
HETATM   14  C   LIG     1      -2.155  -1.189  -1.169  1.00  0.00     0.023 C 
ENDBRANCH   3  11
TORSDOF 1
