REMARK  0 active torsions:
REMARK  status: ('A' for Active; 'I' for Inactive)
ROOT
HETATM    1  C   LIG     1      -2.539   0.596  -0.173  1.00  0.00     0.033 C 
HETATM    2  C   LIG     1      -1.213  -0.097  -0.066  1.00  0.00    -0.003 A 
HETATM    3  C   LIG     1      -0.028   0.650  -0.080  1.00  0.00    -0.005 A 
HETATM    4  C   LIG     1       1.212   0.006   0.029  1.00  0.00    -0.003 A 
HETATM    5  C   LIG     1       2.487   0.793  -0.025  1.00  0.00     0.033 C 
HETATM    6  C   LIG     1       1.241  -1.392   0.120  1.00  0.00     0.095 A 
HETATM    7  N   LIG     1       0.081  -2.100   0.131  1.00  0.00    -0.243 NA
HETATM    8  C   LIG     1      -1.132  -1.492   0.045  1.00  0.00     0.095 A 
ENDROOT
TORSDOF 0
