REMARK  3 active torsions:
REMARK  status: ('A' for Active; 'I' for Inactive)
REMARK    1  A    between atoms: C_2  and  C_3 
REMARK    2  A    between atoms: C_3  and  C_4 
REMARK    3  A    between atoms: C_4  and  C_5 
ROOT
HETATM    1  C   LIG     1       0.748  -0.656  -0.171  1.00  0.00     0.065 C 
ENDROOT
BRANCH   1   2
HETATM    2  C   LIG     1       1.971  -0.374   0.662  1.00  0.00     0.151 C 
HETATM    3  C   LIG     1       3.092   0.477   0.143  1.00  0.00     0.072 C 
HETATM    4  O   LIG     1       2.061  -0.856   1.782  1.00  0.00    -0.296 OA
ENDBRANCH   1   2
BRANCH   1   5
HETATM    5  C   LIG     1      -0.488   0.014   0.437  1.00  0.00     0.008 C 
BRANCH   5   6
HETATM    6  C   LIG     1      -1.736  -0.261  -0.410  1.00  0.00     0.000 C 
HETATM    7  C   LIG     1      -2.970   0.404   0.193  1.00  0.00     0.000 C 
ENDBRANCH   5   6
ENDBRANCH   1   5
TORSDOF 3
