REMARK  0 active torsions:
REMARK  status: ('A' for Active; 'I' for Inactive)
REMARK       I    between atoms: C_2  and  N_3 
REMARK       I    between atoms: N_3  and  C_4 
ROOT
HETATM    1  C   LIG     1      -2.211   0.111  -0.627  1.00  0.00     0.100 C 
HETATM    2  C   LIG     1      -1.005   0.585   0.121  1.00  0.00     0.260 C 
HETATM    3  N   LIG     1       0.208  -0.186   0.107  1.00  0.00    -0.160 NA
HETATM    4  C   LIG     1       1.409   0.194   0.796  1.00  0.00     0.357 C 
HETATM    5  N   LIG     1       2.565  -0.640   0.722  1.00  0.00    -0.038 NA
HETATM    6  O   LIG     1       1.458   1.259   1.468  1.00  0.00    -0.248 OA
HETATM    7  O   LIG     1      -1.073   1.669   0.760  1.00  0.00    -0.270 OA
ENDROOT
TORSDOF 0
