REMARK  0 active torsions:
REMARK  status: ('A' for Active; 'I' for Inactive)
ROOT
HETATM    1  O   LIG     1       1.613   2.460   0.479  1.00  0.00    -0.296 OA
HETATM    2  C   LIG     1       1.141   1.403   0.088  1.00  0.00     0.151 C 
HETATM    3  C   LIG     1      -0.316   1.309  -0.274  1.00  0.00     0.065 C 
HETATM    4  C   LIG     1      -0.929   0.019   0.305  1.00  0.00     0.007 C 
HETATM    5  C   LIG     1      -2.369  -0.159  -0.186  1.00  0.00     0.000 C 
HETATM    6  C   LIG     1      -0.073  -1.212  -0.065  1.00  0.00     0.001 C 
HETATM    7  C   LIG     1       1.367  -1.053   0.446  1.00  0.00     0.008 C 
HETATM    8  C   LIG     1       2.028   0.208  -0.123  1.00  0.00     0.065 C 
ENDROOT
TORSDOF 0
