REMARK  0 active torsions:
REMARK  status: ('A' for Active; 'I' for Inactive)
ROOT
HETATM    1  C   LIG     1       2.458   0.529  -0.038  1.00  0.00     0.026 C 
HETATM    2  C   LIG     1       0.977   0.266   0.019  1.00  0.00    -0.048 C 
HETATM    3  C   LIG     1       0.123   1.254   0.367  1.00  0.00    -0.034 C 
HETATM    4  C   LIG     1      -1.365   1.041   0.503  1.00  0.00     0.025 C 
HETATM    5  C   LIG     1      -1.857  -0.185  -0.271  1.00  0.00     0.005 C 
HETATM    6  C   LIG     1      -0.954  -1.384   0.013  1.00  0.00     0.004 C 
HETATM    7  C   LIG     1       0.478  -1.088  -0.445  1.00  0.00     0.022 C 
ENDROOT
TORSDOF 0
