REMARK  0 active torsions:
REMARK  status: ('A' for Active; 'I' for Inactive)
ROOT
HETATM    1  C   LIG     1      -2.164  -0.614   0.010  1.00  0.00     0.031 C 
HETATM    2  C   LIG     1      -0.732  -0.166   0.005  1.00  0.00    -0.021 A 
HETATM    3  C   LIG     1       0.295  -1.120  -0.057  1.00  0.00     0.002 A 
HETATM    4  C   LIG     1       1.635  -0.715  -0.062  1.00  0.00     0.034 A 
HETATM    5 BR   LIG     1       3.028  -2.019  -0.147  1.00  0.00    -0.049 Br
HETATM    6  C   LIG     1       1.953   0.646  -0.005  1.00  0.00     0.006 A 
HETATM    7  C   LIG     1       0.935   1.601   0.058  1.00  0.00     0.000 A 
HETATM    8  C   LIG     1      -0.405   1.199   0.062  1.00  0.00    -0.004 A 
ENDROOT
TORSDOF 0
