REMARK  0 active torsions:
REMARK  status: ('A' for Active; 'I' for Inactive)
ROOT
HETATM    1  I   LIG     1       3.365  -0.632   0.075  1.00  0.00    -0.042 I 
HETATM    2  C   LIG     1       1.292  -0.243   0.029  1.00  0.00     0.030 A 
HETATM    3  C   LIG     1       0.381  -1.304  -0.007  1.00  0.00     0.006 A 
HETATM    4  C   LIG     1      -0.994  -1.046  -0.038  1.00  0.00     0.000 A 
HETATM    5  C   LIG     1      -1.458   0.274  -0.033  1.00  0.00     0.000 A 
HETATM    6  C   LIG     1      -0.548   1.335   0.004  1.00  0.00     0.000 A 
HETATM    7  C   LIG     1       0.827   1.078   0.035  1.00  0.00     0.006 A 
ENDROOT
TORSDOF 0
