REMARK  2 active torsions:
REMARK  status: ('A' for Active; 'I' for Inactive)
REMARK    1  A    between atoms: C_2  and  C_3 
REMARK    2  A    between atoms: C_3  and  C_4 
ROOT
HETATM    1  C   LIG     1      -0.025  -0.948   0.300  1.00  0.00     0.051 C 
ENDROOT
BRANCH   1   2
HETATM    2  C   LIG     1       1.164  -0.040   0.458  1.00  0.00    -0.021 C 
HETATM    3  C   LIG     1       1.851   0.406  -0.597  1.00  0.00    -0.004 C 
ENDBRANCH   1   2
BRANCH   1   4
HETATM    4  C   LIG     1      -1.170  -0.240  -0.369  1.00  0.00    -0.021 C 
HETATM    5  C   LIG     1      -1.825   0.759   0.231  1.00  0.00    -0.004 C 
ENDBRANCH   1   4
TORSDOF 2
