REMARK  3 active torsions:
REMARK  status: ('A' for Active; 'I' for Inactive)
REMARK    1  A    between atoms: C_2  and  C_3 
REMARK    2  A    between atoms: C_3  and  C_4 
REMARK    3  A    between atoms: C_4  and  C_5 
ROOT
HETATM    1  C   LIG     1      -0.902  -0.902   0.139  1.00  0.00     0.026 C 
ENDROOT
BRANCH   1   2
HETATM    2  C   LIG     1      -2.212  -0.441   0.717  1.00  0.00    -0.026 C 
HETATM    3  C   LIG     1      -2.913   0.555   0.166  1.00  0.00    -0.004 C 
ENDBRANCH   1   2
BRANCH   1   4
HETATM    4  C   LIG     1       0.203   0.136   0.368  1.00  0.00     0.004 C 
BRANCH   4   5
HETATM    5  C   LIG     1       1.544  -0.360  -0.185  1.00  0.00     0.000 C 
HETATM    6  C   LIG     1       2.648   0.670   0.039  1.00  0.00     0.000 C 
ENDBRANCH   4   5
ENDBRANCH   1   4
TORSDOF 3
