REMARK  3 active torsions:
REMARK  status: ('A' for Active; 'I' for Inactive)
REMARK    1  A    between atoms: C_2  and  C_3 
REMARK    2  A    between atoms: C_3  and  C_4 
REMARK    3  A    between atoms: C_4  and  C_5 
ROOT
HETATM    1  C   LIG     1      -0.380   0.660  -0.620  1.00  0.00     0.030 C 
ENDROOT
BRANCH   1   2
HETATM    2  C   LIG     1      -1.844   0.341  -0.759  1.00  0.00    -0.026 C 
HETATM    3  C   LIG     1      -2.623   0.132   0.306  1.00  0.00    -0.005 C 
ENDBRANCH   1   2
BRANCH   1   4
HETATM    4  C   LIG     1       0.415  -0.566  -0.160  1.00  0.00     0.030 C 
BRANCH   4   5
HETATM    5  C   LIG     1       1.881  -0.237  -0.082  1.00  0.00    -0.026 C 
HETATM    6  C   LIG     1       2.564  -0.310   1.065  1.00  0.00    -0.005 C 
ENDBRANCH   4   5
ENDBRANCH   1   4
TORSDOF 3
