REMARK  4 active torsions:
REMARK  status: ('A' for Active; 'I' for Inactive)
REMARK    1  A    between atoms: C_2  and  O_3 
REMARK    2  A    between atoms: O_3  and  C_4 
REMARK    3  A    between atoms: C_4  and  C_5 
REMARK    4  A    between atoms: C_5  and  C_6 
ROOT
HETATM    1  O   LIG     1      -0.976  -0.033   0.474  1.00  0.00    -0.287 OA
ENDROOT
BRANCH   1   2
HETATM    2  C   LIG     1      -2.301   0.405   0.423  1.00  0.00     0.373 C 
HETATM    3  N   LIG     1      -2.694   1.544   1.183  1.00  0.00    -0.032 NA
HETATM    4  O   LIG     1      -3.152  -0.196  -0.287  1.00  0.00    -0.242 OA
ENDBRANCH   1   2
BRANCH   1   5
HETATM    5  C   LIG     1      -0.508  -1.157  -0.265  1.00  0.00     0.153 C 
BRANCH   5   6
HETATM    6  C   LIG     1       0.986  -1.378  -0.007  1.00  0.00     0.033 C 
BRANCH   6   7
HETATM    7  C   LIG     1       1.889  -0.397  -0.773  1.00  0.00     0.003 C 
HETATM    8  C   LIG     1       1.803   1.034  -0.246  1.00  0.00     0.000 C 
ENDBRANCH   6   7
ENDBRANCH   5   6
ENDBRANCH   1   5
TORSDOF 4
