REMARK  1 active torsions:
REMARK  status: ('A' for Active; 'I' for Inactive)
REMARK    1  A    between atoms: C_2  and  C_5 
ROOT
HETATM    1  C   LIG     1       1.508   1.095   0.555  1.00  0.00     0.033 C 
HETATM    2  C   LIG     1       0.727   0.003  -0.216  1.00  0.00     0.127 C 
HETATM    3  C   LIG     1       1.494  -1.323  -0.037  1.00  0.00     0.033 C 
HETATM    4  O   LIG     1       0.723   0.304  -1.594  1.00  0.00    -0.226 OA
ENDROOT
BRANCH   2   5
HETATM    5  C   LIG     1      -0.744  -0.145   0.326  1.00  0.00     0.028 C 
HETATM    6  C   LIG     1      -1.525   1.184   0.363  1.00  0.00     0.003 C 
HETATM    7  C   LIG     1      -1.561  -1.181  -0.469  1.00  0.00     0.003 C 
ENDBRANCH   2   5
TORSDOF 1
