REMARK  1 active torsions:
REMARK  status: ('A' for Active; 'I' for Inactive)
REMARK    1  A    between atoms: C_2  and  C_5 
ROOT
HETATM    1  C   LIG     1      -1.604   1.053  -0.606  1.00  0.00     0.033 C 
HETATM    2  C   LIG     1      -0.865  -0.009   0.251  1.00  0.00     0.127 C 
HETATM    3  C   LIG     1      -1.439  -1.400  -0.124  1.00  0.00     0.033 C 
HETATM    4  O   LIG     1      -1.158   0.239   1.610  1.00  0.00    -0.226 OA
ENDROOT
BRANCH   2   5
HETATM    5  C   LIG     1       0.715   0.062   0.069  1.00  0.00     0.026 C 
HETATM    6  C   LIG     1       1.414  -0.989   0.970  1.00  0.00     0.002 C 
HETATM    7  C   LIG     1       1.167  -0.195  -1.390  1.00  0.00     0.002 C 
HETATM    8  C   LIG     1       1.250   1.455   0.490  1.00  0.00     0.002 C 
ENDBRANCH   2   5
TORSDOF 1
