REMARK  1 active torsions:
REMARK  status: ('A' for Active; 'I' for Inactive)
REMARK    1  A    between atoms: C_2  and  C_5 
ROOT
HETATM    1  C   LIG     1      -0.894   1.277  -0.098  1.00  0.00     0.016 C 
HETATM    2  C   LIG     1      -0.478  -0.192  -0.288  1.00  0.00     0.067 C 
HETATM    3  C   LIG     1      -1.571  -1.105   0.288  1.00  0.00     0.016 C 
HETATM    4 CL   LIG     1      -0.349  -0.535  -2.043  1.00  0.00    -0.116 Cl
ENDROOT
BRANCH   2   5
HETATM    5  C   LIG     1       0.867  -0.503   0.417  1.00  0.00     0.015 C 
HETATM    6  C   LIG     1       2.046   0.356  -0.052  1.00  0.00     0.001 C 
ENDBRANCH   2   5
TORSDOF 1
