REMARK  3 active torsions:
REMARK  status: ('A' for Active; 'I' for Inactive)
REMARK    1  A    between atoms: C_2  and  O_3 
REMARK    2  A    between atoms: O_3  and  C_4 
REMARK    3  A    between atoms: C_4  and  C_25 
ROOT
HETATM    1  C   LIG     1       2.965  -0.637   0.089  1.00  0.00     0.152 C 
HETATM    2  C   LIG     1       1.499  -0.944  -0.368  1.00  0.00     0.030 C 
HETATM    3  C   LIG     1       1.509  -1.709  -1.736  1.00  0.00     0.003 C 
HETATM    4  C   LIG     1       3.351   0.564  -0.825  1.00  0.00     0.035 C 
HETATM    5  C   LIG     1       2.041   1.270  -1.211  1.00  0.00     0.003 C 
HETATM    6  C   LIG     1       0.942   0.476  -0.507  1.00  0.00     0.007 C 
HETATM    7  C   LIG     1      -0.489   0.542  -1.103  1.00  0.00     0.022 C 
HETATM    8  C   LIG     1      -1.005   1.947  -0.876  1.00  0.00    -0.031 C 
HETATM    9  C   LIG     1      -2.136   2.257  -0.228  1.00  0.00    -0.030 C 
HETATM   10  C   LIG     1      -2.454   3.715   0.013  1.00  0.00     0.030 C 
HETATM   11  C   LIG     1      -3.103   1.190   0.159  1.00  0.00    -0.024 C 
HETATM   12  C   LIG     1      -4.213   1.499   0.867  1.00  0.00     0.033 C 
HETATM   13  C   LIG     1      -5.307   0.536   1.081  1.00  0.00     0.173 C 
HETATM   14  O   LIG     1      -6.326   0.887   1.733  1.00  0.00    -0.291 OA
HETATM   15  C   LIG     1      -1.412  -0.600  -0.518  1.00  0.00     0.008 C 
HETATM   16  C   LIG     1      -2.938  -0.193  -0.469  1.00  0.00     0.019 C 
HETATM   17  C   LIG     1      -3.785  -1.251   0.313  1.00  0.00     0.012 C 
HETATM   18  C   LIG     1      -5.246  -0.833   0.484  1.00  0.00     0.070 C 
HETATM   19  C   LIG     1      -3.468  -0.115  -1.927  1.00  0.00     0.004 C 
HETATM   20  C   LIG     1      -0.826  -1.183   0.809  1.00  0.00     0.001 C 
HETATM   21  C   LIG     1       0.626  -1.723   0.666  1.00  0.00     0.003 C 
ENDROOT
BRANCH   1  22
HETATM   22  O   LIG     1       2.942  -0.195   1.458  1.00  0.00    -0.300 OA
BRANCH  22  23
HETATM   23  C   LIG     1       4.060   0.189   2.212  1.00  0.00     0.273 C 
HETATM   24  C   LIG     1       3.865   0.641   3.618  1.00  0.00     0.106 C 
HETATM   25  O   LIG     1       5.220   0.159   1.720  1.00  0.00    -0.264 OA
ENDBRANCH  22  23
ENDBRANCH   1  22
BRANCH   1  26
HETATM   26  C   LIG     1       3.880  -1.861  -0.015  1.00  0.00     0.176 C 
HETATM   27  C   LIG     1       5.202  -1.853  -0.734  1.00  0.00     0.075 C 
HETATM   28  O   LIG     1       3.537  -2.895   0.537  1.00  0.00    -0.294 OA
ENDBRANCH   1  26
TORSDOF 3
