REMARK  2 active torsions:
REMARK  status: ('A' for Active; 'I' for Inactive)
REMARK    1  A    between atoms: C_2  and  C_4 
REMARK    2  A    between atoms: C_4  and  C_7 
ROOT
HETATM    1  C   LIG     1       0.252   0.329   0.405  1.00  0.00     0.127 C 
HETATM    2  O   LIG     1       0.756   1.647   0.471  1.00  0.00    -0.226 OA
HETATM    3  C   LIG     1       0.436  -0.359   1.785  1.00  0.00     0.033 C 
ENDROOT
BRANCH   1   4
HETATM    4  C   LIG     1      -1.284   0.442   0.083  1.00  0.00     0.028 C 
HETATM    5  C   LIG     1      -1.578   1.282  -1.175  1.00  0.00     0.003 C 
HETATM    6  C   LIG     1      -2.015  -0.910  -0.025  1.00  0.00     0.003 C 
ENDBRANCH   1   4
BRANCH   1   7
HETATM    7  C   LIG     1       1.008  -0.467  -0.706  1.00  0.00     0.030 C 
HETATM    8  C   LIG     1       2.528  -0.538  -0.524  1.00  0.00     0.003 C 
ENDBRANCH   1   7
TORSDOF 2
