REMARK  3 active torsions:
REMARK  status: ('A' for Active; 'I' for Inactive)
REMARK    1  A    between atoms: C_2  and  C_3 
REMARK    2  A    between atoms: C_3  and  C_7 
REMARK    3  A    between atoms: C_3  and  C_5 
ROOT
HETATM    1  C   LIG     1       0.114   0.173   0.642  1.00  0.00     0.127 C 
HETATM    2  O   LIG     1       0.872  -0.256   1.753  1.00  0.00    -0.226 OA
ENDROOT
BRANCH   1   3
HETATM    3  C   LIG     1       0.998   0.208  -0.652  1.00  0.00     0.030 C 
HETATM    4  C   LIG     1       2.131  -0.824  -0.707  1.00  0.00     0.003 C 
ENDBRANCH   1   3
BRANCH   1   5
HETATM    5  C   LIG     1      -1.161  -0.722   0.473  1.00  0.00     0.030 C 
HETATM    6  C   LIG     1      -0.918  -2.178   0.065  1.00  0.00     0.003 C 
ENDBRANCH   1   5
BRANCH   1   7
HETATM    7  C   LIG     1      -0.339   1.621   0.996  1.00  0.00     0.030 C 
HETATM    8  C   LIG     1      -1.172   2.343  -0.073  1.00  0.00     0.003 C 
ENDBRANCH   1   7
TORSDOF 3
