REMARK  3 active torsions:
REMARK  status: ('A' for Active; 'I' for Inactive)
REMARK    1  A    between atoms: C_2  and  C_3 
REMARK    2  A    between atoms: C_3  and  C_6 
REMARK    3  A    between atoms: C_6  and  C_7 
ROOT
HETATM    1  C   LIG     1      -0.793  -0.584  -0.542  1.00  0.00     0.127 C 
HETATM    2  C   LIG     1      -0.564  -2.092  -0.298  1.00  0.00     0.033 C 
HETATM    3  O   LIG     1      -1.596  -0.435  -1.691  1.00  0.00    -0.226 OA
ENDROOT
BRANCH   1   4
HETATM    4  C   LIG     1      -1.583  -0.004   0.661  1.00  0.00     0.030 C 
HETATM    5  C   LIG     1      -1.902   1.489   0.533  1.00  0.00     0.003 C 
ENDBRANCH   1   4
BRANCH   1   6
HETATM    6  C   LIG     1       0.566   0.146  -0.782  1.00  0.00     0.030 C 
BRANCH   6   7
HETATM    7  C   LIG     1       1.515   0.176   0.430  1.00  0.00     0.003 C 
HETATM    8  C   LIG     1       2.829   0.869   0.077  1.00  0.00     0.000 C 
ENDBRANCH   6   7
ENDBRANCH   1   6
TORSDOF 3
