REMARK  1 active torsions:
REMARK  status: ('A' for Active; 'I' for Inactive)
REMARK    1  A    between atoms: C_2  and  O_3 
ROOT
HETATM    1  N   LIG     1       2.043   0.080  -0.158  1.00  0.00    -0.032 NA
HETATM    2  C   LIG     1       0.705  -0.205   0.238  1.00  0.00     0.373 C 
HETATM    3  O   LIG     1       0.493  -0.976   1.213  1.00  0.00    -0.242 OA
ENDROOT
BRANCH   2   4
HETATM    4  O   LIG     1      -0.359   0.373  -0.459  1.00  0.00    -0.285 OA
HETATM    5  C   LIG     1      -1.719   0.133  -0.119  1.00  0.00     0.186 C 
ENDBRANCH   2   4
TORSDOF 1
