REMARK  1 active torsions:
REMARK  status: ('A' for Active; 'I' for Inactive)
REMARK    1  A    between atoms: C_2  and  C_4 
ROOT
HETATM    1  C   LIG     1      -1.169   0.655   0.979  1.00  0.00     0.003 C 
HETATM    2  C   LIG     1      -0.566  -0.342  -0.025  1.00  0.00     0.030 C 
HETATM    3  C   LIG     1      -1.330  -0.274  -1.355  1.00  0.00     0.003 C 
ENDROOT
BRANCH   2   4
HETATM    4  C   LIG     1       0.955  -0.122  -0.250  1.00  0.00     0.152 C 
HETATM    5  C   LIG     1       1.777  -0.463   0.996  1.00  0.00     0.036 C 
HETATM    6  O   LIG     1       1.222   1.206  -0.623  1.00  0.00    -0.224 OA
ENDBRANCH   2   4
TORSDOF 1
