REMARK  0 active torsions:
REMARK  status: ('A' for Active; 'I' for Inactive)
REMARK       I    between atoms: N_2  and  C_3 
ROOT
HETATM    1  C   LIG     1      -1.281   0.569  -0.336  1.00  0.00     0.157 C 
HETATM    2  N   LIG     1      -0.593  -0.711  -0.223  1.00  0.00    -0.220 NA
HETATM    3  C   LIG     1       0.781  -0.828   0.171  1.00  0.00     0.350 C 
HETATM    4  N   LIG     1       1.568   0.326   0.482  1.00  0.00    -0.038 NA
HETATM    5  O   LIG     1       1.306  -1.970   0.246  1.00  0.00    -0.249 OA
ENDROOT
TORSDOF 0
