REMARK  1 active torsions:
REMARK  status: ('A' for Active; 'I' for Inactive)
REMARK    1  A    between atoms: C_5  and  C_6 
ROOT
HETATM    1  C   LIG     1       3.591  -0.426  -0.529  1.00  0.00     0.026 C 
HETATM    2  C   LIG     1       2.112  -0.243  -0.322  1.00  0.00    -0.048 C 
HETATM    3  C   LIG     1       1.324  -0.011  -1.394  1.00  0.00    -0.034 C 
HETATM    4  C   LIG     1      -0.175   0.131  -1.296  1.00  0.00     0.029 C 
HETATM    5  C   LIG     1      -0.630   0.536   0.117  1.00  0.00     0.023 C 
HETATM    6  C   LIG     1       0.049  -0.364   1.161  1.00  0.00     0.009 C 
HETATM    7  C   LIG     1       1.571  -0.195   1.095  1.00  0.00     0.022 C 
ENDROOT
BRANCH   5   8
HETATM    8  C   LIG     1      -2.147   0.494   0.246  1.00  0.00    -0.044 C 
HETATM    9  C   LIG     1      -2.914  -0.796   0.090  1.00  0.00     0.026 C 
HETATM   10  C   LIG     1      -2.831   1.619   0.507  1.00  0.00    -0.009 C 
ENDBRANCH   5   8
TORSDOF 1
