REMARK  2 active torsions:
REMARK  status: ('A' for Active; 'I' for Inactive)
REMARK    1  A    between atoms: C_2  and  C_3 
REMARK    2  A    between atoms: C_3  and  C_4 
ROOT
HETATM    1  C   LIG     1      -0.014   0.052  -0.373  1.00  0.00    -0.019 A 
HETATM    2  C   LIG     1       0.251   0.482   0.946  1.00  0.00    -0.004 A 
HETATM    3  C   LIG     1       0.412   1.843   1.227  1.00  0.00    -0.000 A 
HETATM    4  C   LIG     1       0.310   2.789   0.206  1.00  0.00    -0.000 A 
HETATM    5  C   LIG     1       0.044   2.377  -1.101  1.00  0.00    -0.000 A 
HETATM    6  C   LIG     1      -0.118   1.019  -1.389  1.00  0.00    -0.004 A 
ENDROOT
BRANCH   1   7
HETATM    7  C   LIG     1      -0.207  -1.404  -0.759  1.00  0.00     0.062 C 
BRANCH   7   8
HETATM    8  C   LIG     1      -0.011  -2.431   0.360  1.00  0.00     0.187 C 
HETATM    9  O   LIG     1       1.321  -2.424   0.795  1.00  0.00    -0.220 OA
ENDBRANCH   7   8
ENDBRANCH   1   7
TORSDOF 2
