REMARK  3 active torsions:
REMARK  status: ('A' for Active; 'I' for Inactive)
REMARK    1  A    between atoms: CA_2  and  CB_3 
REMARK    2  A    between atoms: CA_2  and  C_11 
REMARK    3  A    between atoms: CB_3  and  CG_4 
ROOT
ATOM      1  CG  TYR A   1       0.448   0.248  -0.446  1.00  0.00    -0.019 A 
ATOM      2  CD2 TYR A   1       1.214   0.947   0.503  1.00  0.00    -0.002 A 
ATOM      3  CE2 TYR A   1       2.592   0.730   0.594  1.00  0.00     0.027 A 
ATOM      4  CZ  TYR A   1       3.220  -0.184  -0.263  1.00  0.00     0.131 A 
ATOM      5  OH  TYR A   1       4.592  -0.408  -0.180  1.00  0.00    -0.190 OA
ATOM      6  CE1 TYR A   1       2.462  -0.877  -1.212  1.00  0.00     0.027 A 
ATOM      7  CD1 TYR A   1       1.084  -0.663  -1.306  1.00  0.00    -0.002 A 
ENDROOT
BRANCH   1   8
ATOM      8  CB  TYR A   1      -1.039   0.485  -0.545  1.00  0.00     0.077 C 
BRANCH   8   9
ATOM      9  CA  TYR A   1      -1.789  -0.078   0.676  1.00  0.00     0.391 C 
ATOM     10  N   TYR A   1      -1.555  -1.522   0.790  1.00  0.00     0.628 N 
BRANCH   9  11
ATOM     11  C   TYR A   1      -3.260   0.248   0.578  1.00  0.00     0.224 C 
ATOM     12  O   TYR A   1      -3.667   1.579   0.587  1.00  0.00    -0.646 OA
ATOM     13  OXT TYR A   1      -4.125  -0.666   0.497  1.00  0.00    -0.646 OA
ENDBRANCH   9  11
ENDBRANCH   8   9
ENDBRANCH   1   8
TORSDOF 3
