REMARK  2 active torsions:
REMARK  status: ('A' for Active; 'I' for Inactive)
REMARK    1  A    between atoms: C_2  and  O_3 
REMARK    2  A    between atoms: O_3  and  C_4 
ROOT
HETATM    1  O   LIG     1       0.004  -0.862   0.490  1.00  0.00    -0.354 OA
ENDROOT
BRANCH   1   2
HETATM    2  C   LIG     1      -0.872   0.185   0.866  1.00  0.00     0.142 C 
HETATM    3  C   LIG     1      -2.185   0.082   0.096  1.00  0.00     0.035 C 
ENDBRANCH   1   2
BRANCH   1   4
HETATM    4  C   LIG     1       0.873  -0.459  -0.552  1.00  0.00     0.142 C 
HETATM    5  C   LIG     1       2.184   0.067   0.024  1.00  0.00     0.035 C 
ENDBRANCH   1   4
TORSDOF 2
