REMARK  0 active torsions:
REMARK  status: ('A' for Active; 'I' for Inactive)
ROOT
HETATM    1  C   LIG     1      -1.053   0.088  -0.104  1.00  0.00     0.139 C 
HETATM    2  N   LIG     1       0.344   0.467  -0.307  1.00  0.00    -0.077 NA
HETATM    3  N   LIG     1       1.153  -0.490   0.332  1.00  0.00    -0.062 N 
ENDROOT
TORSDOF 0
