REMARK  0 active torsions:
REMARK  status: ('A' for Active; 'I' for Inactive)
ROOT
HETATM    1  C   LIG     1      -0.914  -0.283  -0.624  1.00  0.00     0.094 C 
HETATM    2  C   LIG     1      -0.040   0.478   0.319  1.00  0.00     0.243 C 
HETATM    3  N   LIG     1       1.280   0.016   0.605  1.00  0.00    -0.061 NA
HETATM    4  O   LIG     1      -0.467   1.530   0.865  1.00  0.00    -0.276 OA
ENDROOT
TORSDOF 0
