REMARK  2 active torsions:
REMARK  status: ('A' for Active; 'I' for Inactive)
REMARK    1  A    between atoms: C_14  and  C_15 
REMARK    2  A    between atoms: C_20  and  N_21 
ROOT
HETATM    1  O   LIG     1       5.311   2.545  -1.005  1.00  0.00    -0.190 OA
HETATM    2  C   LIG     1       5.156   1.173  -0.790  1.00  0.00     0.134 A 
HETATM    3  C   LIG     1       6.223   0.342  -1.141  1.00  0.00     0.028 A 
HETATM    4  C   LIG     1       6.111  -1.041  -1.029  1.00  0.00     0.002 A 
HETATM    5  C   LIG     1       4.922  -1.612  -0.583  1.00  0.00    -0.002 A 
HETATM    6  C   LIG     1       3.823  -0.804  -0.229  1.00  0.00     0.011 A 
HETATM    7  C   LIG     1       3.962   0.607  -0.269  1.00  0.00     0.062 A 
HETATM    8  C   LIG     1       2.867   1.441   0.288  1.00  0.00     0.195 C 
HETATM    9  C   LIG     1       1.484   0.887   0.352  1.00  0.00     0.043 C 
HETATM   10  C   LIG     1       0.424   1.646   0.745  1.00  0.00     0.142 C 
HETATM   11  O   LIG     1       0.653   2.938   1.228  1.00  0.00    -0.192 OA
HETATM   12  C   LIG     1      -1.008   1.098   0.786  1.00  0.00     0.225 C 
HETATM   13  C   LIG     1      -2.043   2.057   0.232  1.00  0.00     0.212 C 
HETATM   14  C   LIG     1      -3.439   1.582   0.081  1.00  0.00     0.113 C 
HETATM   15  C   LIG     1      -3.699   0.248   0.079  1.00  0.00     0.147 C 
HETATM   16  O   LIG     1      -5.012  -0.231   0.135  1.00  0.00    -0.193 OA
HETATM   17  C   LIG     1      -2.575  -0.797   0.092  1.00  0.00     0.270 C 
HETATM   18  O   LIG     1      -1.727   3.215  -0.158  1.00  0.00    -0.288 OA
HETATM   19  O   LIG     1      -1.325   0.788   2.124  1.00  0.00    -0.211 OA
HETATM   20  C   LIG     1      -1.158  -0.172  -0.076  1.00  0.00     0.080 C 
HETATM   21  C   LIG     1      -0.043  -1.163   0.269  1.00  0.00     0.013 C 
HETATM   22  C   LIG     1       1.319  -0.553  -0.124  1.00  0.00     0.059 C 
HETATM   23  C   LIG     1       2.539  -1.442   0.296  1.00  0.00     0.149 C 
HETATM   24  O   LIG     1       2.399  -2.716  -0.299  1.00  0.00    -0.221 OA
HETATM   25  C   LIG     1       2.678  -1.583   1.834  1.00  0.00     0.038 C 
HETATM   26  O   LIG     1       3.132   2.569   0.783  1.00  0.00    -0.287 OA
ENDROOT
BRANCH  14  27
HETATM   27  C   LIG     1      -4.512   2.588  -0.090  1.00  0.00     0.271 C 
HETATM   28  N   LIG     1      -4.532   3.770   0.712  1.00  0.00    -0.057 NA
HETATM   29  O   LIG     1      -5.398   2.424  -0.971  1.00  0.00    -0.271 OA
ENDBRANCH  14  27
BRANCH  17  30
HETATM   30  N   LIG     1      -2.758  -1.869  -0.927  1.00  0.00     0.146 N 
HETATM   31  C   LIG     1      -3.254  -1.401  -2.234  1.00  0.00     0.286 C 
HETATM   32  C   LIG     1      -3.565  -2.996  -0.431  1.00  0.00     0.286 C 
ENDBRANCH  17  30
TORSDOF 2
