REMARK  2 active torsions:
REMARK  status: ('A' for Active; 'I' for Inactive)
REMARK    1  A    between atoms: N_12  and  C_13 
REMARK    2  A    between atoms: C_13  and  C_14 
ROOT
HETATM    1  C   LIG     1      -1.960  -3.399   1.028  1.00  0.00     0.002 A 
HETATM    2  C   LIG     1      -2.732  -2.928   2.093  1.00  0.00     0.001 A 
HETATM    3  C   LIG     1      -2.880  -1.553   2.296  1.00  0.00     0.008 A 
HETATM    4  C   LIG     1      -2.250  -0.648   1.436  1.00  0.00     0.045 A 
HETATM    5  S   LIG     1      -2.325   1.115   1.770  1.00  0.00    -0.084 SA
HETATM    6  C   LIG     1      -2.645   1.538   0.056  1.00  0.00     0.045 A 
HETATM    7  C   LIG     1      -3.622   2.486  -0.264  1.00  0.00     0.008 A 
HETATM    8  C   LIG     1      -3.812   2.873  -1.593  1.00  0.00     0.001 A 
HETATM    9  C   LIG     1      -3.034   2.304  -2.606  1.00  0.00     0.002 A 
HETATM   10  C   LIG     1      -2.073   1.337  -2.294  1.00  0.00     0.018 A 
HETATM   11  C   LIG     1      -1.867   0.947  -0.959  1.00  0.00     0.066 A 
HETATM   12  N   LIG     1      -1.004  -0.163  -0.630  1.00  0.00    -0.327 N 
HETATM   13  C   LIG     1      -1.492  -1.113   0.344  1.00  0.00     0.066 A 
HETATM   14  C   LIG     1      -1.349  -2.498   0.150  1.00  0.00     0.018 A 
ENDROOT
BRANCH  12  15
HETATM   15  C   LIG     1       0.284  -0.352  -1.320  1.00  0.00     0.108 C 
BRANCH  15  16
HETATM   16  C   LIG     1       1.453  -0.498  -0.319  1.00  0.00     0.056 C 
HETATM   17  C   LIG     1       2.790  -0.737  -1.064  1.00  0.00     0.006 C 
HETATM   18  C   LIG     1       3.650   0.525  -1.105  1.00  0.00     0.035 C 
HETATM   19  C   LIG     1       3.969   1.016   0.320  1.00  0.00     0.250 C 
HETATM   20  N   LIG     1       2.840   0.879   1.276  1.00  0.00     0.139 N 
HETATM   21  C   LIG     1       1.523   0.734   0.625  1.00  0.00     0.252 C 
HETATM   22  C   LIG     1       3.078  -0.169   2.283  1.00  0.00     0.285 C 
ENDBRANCH  15  16
ENDBRANCH  12  15
TORSDOF 2
