REMARK  3 active torsions:
REMARK  status: ('A' for Active; 'I' for Inactive)
REMARK    1  A    between atoms: C_2  and  C_6 
REMARK    2  A    between atoms: C_2  and  N_3 
REMARK    3  A    between atoms: C_6  and  N_7 
ROOT
HETATM    1  N   LIG     1       0.723  -0.014   0.281  1.00  0.00    -0.325 N 
HETATM    2  C   LIG     1       1.090   1.276  -0.252  1.00  0.00     0.066 A 
HETATM    3  C   LIG     1       2.426   1.711  -0.157  1.00  0.00     0.045 A 
HETATM    4  C   LIG     1       2.844   2.867  -0.825  1.00  0.00     0.008 A 
HETATM    5  C   LIG     1       1.925   3.613  -1.567  1.00  0.00     0.001 A 
HETATM    6  C   LIG     1       0.593   3.200  -1.651  1.00  0.00     0.002 A 
HETATM    7  C   LIG     1       0.177   2.032  -1.005  1.00  0.00     0.018 A 
HETATM    8  S   LIG     1       3.571   0.820   0.901  1.00  0.00    -0.084 SA
HETATM    9  C   LIG     1       3.062  -0.787   0.285  1.00  0.00     0.045 A 
HETATM   10  C   LIG     1       1.689  -1.080   0.169  1.00  0.00     0.066 A 
HETATM   11  C   LIG     1       1.294  -2.377  -0.198  1.00  0.00     0.018 A 
HETATM   12  C   LIG     1       2.254  -3.359  -0.457  1.00  0.00     0.002 A 
HETATM   13  C   LIG     1       3.615  -3.052  -0.368  1.00  0.00     0.001 A 
HETATM   14  C   LIG     1       4.019  -1.766   0.001  1.00  0.00     0.008 A 
ENDROOT
BRANCH   1  15
HETATM   15  C   LIG     1      -0.424  -0.147   1.194  1.00  0.00     0.139 C 
BRANCH  15  16
HETATM   16  C   LIG     1      -1.715  -0.585   0.448  1.00  0.00     0.242 C 
HETATM   17  C   LIG     1      -2.365  -1.811   1.128  1.00  0.00     0.037 C 
BRANCH  16  18
HETATM   18  N   LIG     1      -2.647   0.568   0.303  1.00  0.00     0.141 N 
HETATM   19  C   LIG     1      -3.429   0.879   1.516  1.00  0.00     0.285 C 
HETATM   20  C   LIG     1      -3.541   0.419  -0.858  1.00  0.00     0.285 C 
ENDBRANCH  16  18
ENDBRANCH  15  16
ENDBRANCH   1  15
TORSDOF 3
