REMARK  5 active torsions:
REMARK  status: ('A' for Active; 'I' for Inactive)
REMARK    1  A    between atoms: C_2  and  C_3 
REMARK    2  A    between atoms: C_2  and  C_7 
REMARK    3  A    between atoms: C_3  and  N_4 
REMARK    4  A    between atoms: C_7  and  N_8 
REMARK    5  A    between atoms: C_11  and  O_12 
ROOT
HETATM    1  N   LIG     1       0.385   1.204  -0.085  1.00  0.00    -0.327 N 
HETATM    2  C   LIG     1       1.432   0.207  -0.123  1.00  0.00     0.068 A 
HETATM    3  C   LIG     1       1.505  -0.736  -1.164  1.00  0.00     0.042 A 
HETATM    4  C   LIG     1       2.604  -1.597  -1.272  1.00  0.00     0.096 A 
HETATM    5  C   LIG     1       2.471   0.266   0.823  1.00  0.00     0.045 A 
HETATM    6  C   LIG     1       3.581  -0.573   0.706  1.00  0.00     0.010 A 
HETATM    7  C   LIG     1       3.649  -1.504  -0.333  1.00  0.00     0.025 A 
HETATM    8  S   LIG     1       2.315   1.359   2.239  1.00  0.00    -0.084 SA
HETATM    9  C   LIG     1       1.763   2.748   1.247  1.00  0.00     0.045 A 
HETATM   10  C   LIG     1       0.765   2.550   0.274  1.00  0.00     0.066 A 
HETATM   11  C   LIG     1       0.287   3.656  -0.453  1.00  0.00     0.018 A 
HETATM   12  C   LIG     1       0.792   4.936  -0.200  1.00  0.00     0.002 A 
HETATM   13  C   LIG     1       1.792   5.120   0.758  1.00  0.00     0.001 A 
HETATM   14  C   LIG     1       2.282   4.027   1.478  1.00  0.00     0.008 A 
ENDROOT
BRANCH   1  15
HETATM   15  C   LIG     1      -1.008   0.876  -0.439  1.00  0.00     0.108 C 
BRANCH  15  16
HETATM   16  C   LIG     1      -1.574  -0.247   0.458  1.00  0.00     0.056 C 
HETATM   17  C   LIG     1      -1.636   0.209   1.925  1.00  0.00     0.004 C 
BRANCH  16  18
HETATM   18  C   LIG     1      -2.973  -0.668  -0.044  1.00  0.00     0.252 C 
BRANCH  18  19
HETATM   19  N   LIG     1      -3.505  -1.805   0.741  1.00  0.00     0.141 N 
HETATM   20  C   LIG     1      -4.977  -1.791   0.731  1.00  0.00     0.285 C 
HETATM   21  C   LIG     1      -3.025  -3.092   0.206  1.00  0.00     0.285 C 
ENDBRANCH  18  19
ENDBRANCH  16  18
ENDBRANCH  15  16
ENDBRANCH   1  15
BRANCH   4  22
HETATM   22  O   LIG     1       2.624  -2.520  -2.329  1.00  0.00    -0.328 OA
HETATM   23  C   LIG     1       3.674  -3.453  -2.562  1.00  0.00     0.181 C 
ENDBRANCH   4  22
TORSDOF 5
