REMARK  2 active torsions:
REMARK  status: ('A' for Active; 'I' for Inactive)
REMARK    1  A    between atoms: C_2  and  C_4 
REMARK    2  A    between atoms: C_4  and  C_6 
ROOT
HETATM    1  C   LIG     1       0.144  -0.789  -0.426  1.00  0.00     0.152 C 
HETATM    2  O   LIG     1       0.495  -0.632  -1.779  1.00  0.00    -0.224 OA
ENDROOT
BRANCH   1   3
HETATM    3  C   LIG     1      -1.379  -0.504  -0.218  1.00  0.00     0.030 C 
HETATM    4  C   LIG     1      -1.790  -0.470   1.260  1.00  0.00     0.003 C 
HETATM    5  C   LIG     1      -1.906   0.735  -0.963  1.00  0.00     0.003 C 
ENDBRANCH   1   3
BRANCH   1   6
HETATM    6  C   LIG     1       1.139   0.004   0.475  1.00  0.00     0.030 C 
HETATM    7  C   LIG     1       2.567  -0.534   0.283  1.00  0.00     0.003 C 
HETATM    8  C   LIG     1       1.122   1.521   0.228  1.00  0.00     0.003 C 
ENDBRANCH   1   6
TORSDOF 2
