REMARK  3 active torsions:
REMARK  status: ('A' for Active; 'I' for Inactive)
REMARK    1  A    between atoms: C_2  and  C_16 
REMARK    2  A    between atoms: C_2  and  C_10 
REMARK    3  A    between atoms: C_2  and  C_3 
ROOT
HETATM    1  O   LIG     1      -0.014   0.710   2.055  1.00  0.00    -0.212 OA
HETATM    2  C   LIG     1      -0.032   0.444   0.668  1.00  0.00     0.187 C 
ENDROOT
BRANCH   2   3
HETATM    3  C   LIG     1       1.257  -0.336   0.364  1.00  0.00     0.013 A 
HETATM    4  C   LIG     1       2.110  -0.040  -0.725  1.00  0.00    -0.000 A 
HETATM    5  C   LIG     1       3.257  -0.802  -0.963  1.00  0.00     0.011 A 
HETATM    6  C   LIG     1       3.574  -1.876  -0.130  1.00  0.00     0.058 A 
HETATM    7  C   LIG     1       2.737  -2.195   0.940  1.00  0.00     0.011 A 
HETATM    8 CL   LIG     1       5.014  -2.830  -0.435  1.00  0.00    -0.082 Cl
HETATM    9  C   LIG     1       1.589  -1.437   1.183  1.00  0.00    -0.000 A 
ENDBRANCH   2   3
BRANCH   2  10
HETATM   10  C   LIG     1      -0.098   1.820  -0.030  1.00  0.00     0.051 A 
HETATM   11  C   LIG     1       0.965   2.730   0.122  1.00  0.00     0.101 A 
HETATM   12  N   LIG     1       0.892   3.975  -0.413  1.00  0.00    -0.223 NA
HETATM   13  C   LIG     1      -0.219   4.387  -1.073  1.00  0.00     0.199 A 
HETATM   14  N   LIG     1      -1.289   3.561  -1.178  1.00  0.00    -0.223 NA
HETATM   15  C   LIG     1      -1.261   2.306  -0.660  1.00  0.00     0.101 A 
ENDBRANCH   2  10
BRANCH   2  16
HETATM   16  C   LIG     1      -1.220  -0.485   0.312  1.00  0.00     0.024 A 
HETATM   17  C   LIG     1      -2.044  -1.006   1.341  1.00  0.00    -0.000 A 
HETATM   18  C   LIG     1      -3.100  -1.872   1.055  1.00  0.00    -0.000 A 
HETATM   19  C   LIG     1      -3.356  -2.254  -0.258  1.00  0.00     0.001 A 
HETATM   20  C   LIG     1      -2.553  -1.777  -1.290  1.00  0.00     0.011 A 
HETATM   21  C   LIG     1      -1.488  -0.907  -1.024  1.00  0.00     0.057 A 
HETATM   22 CL   LIG     1      -0.552  -0.372  -2.415  1.00  0.00    -0.083 Cl
ENDBRANCH   2  16
TORSDOF 3
