REMARK  0 active torsions:
REMARK  status: ('A' for Active; 'I' for Inactive)
ROOT
HETATM    1  C   LIG     1       3.342  -0.902  -0.170  1.00  0.00     0.052 C 
HETATM    2  C   LIG     1       1.945  -0.380  -0.062  1.00  0.00     0.061 A 
HETATM    3  C   LIG     1       1.714   0.959   0.270  1.00  0.00     0.042 A 
HETATM    4  C   LIG     1       0.407   1.444   0.370  1.00  0.00     0.134 A 
HETATM    5  O   LIG     1       0.243   2.791   0.705  1.00  0.00    -0.190 OA
HETATM    6  C   LIG     1      -0.680   0.566   0.131  1.00  0.00     0.043 A 
HETATM    7  C   LIG     1      -2.030   0.971   0.209  1.00  0.00     0.004 A 
HETATM    8  C   LIG     1      -3.058   0.056  -0.038  1.00  0.00     0.000 A 
HETATM    9  C   LIG     1      -2.762  -1.268  -0.366  1.00  0.00     0.002 A 
HETATM   10  C   LIG     1      -1.434  -1.687  -0.448  1.00  0.00     0.019 A 
HETATM   11  C   LIG     1      -0.394  -0.783  -0.204  1.00  0.00     0.083 A 
HETATM   12  N   LIG     1       0.894  -1.209  -0.289  1.00  0.00    -0.250 NA
ENDROOT
TORSDOF 0
