REMARK  0 active torsions:
REMARK  status: ('A' for Active; 'I' for Inactive)
ROOT
HETATM    1 BR   LIG     1       3.100   0.801   0.082  1.00  0.00    -0.048 Br
HETATM    2  C   LIG     1       1.239   0.320   0.033  1.00  0.00     0.047 A 
HETATM    3  C   LIG     1       0.855  -1.036   0.047  1.00  0.00     0.041 A 
HETATM    4 BR   LIG     1       2.146  -2.451   0.114  1.00  0.00    -0.048 Br
HETATM    5  C   LIG     1      -0.502  -1.378   0.011  1.00  0.00     0.007 A 
HETATM    6  C   LIG     1      -1.478  -0.382  -0.039  1.00  0.00     0.001 A 
HETATM    7  C   LIG     1      -1.105   0.963  -0.053  1.00  0.00     0.007 A 
HETATM    8  C   LIG     1       0.248   1.321  -0.018  1.00  0.00     0.041 A 
HETATM    9 BR   LIG     1       0.693   3.185  -0.039  1.00  0.00    -0.048 Br
ENDROOT
TORSDOF 0
