REMARK  0 active torsions:
REMARK  status: ('A' for Active; 'I' for Inactive)
ROOT
HETATM    1 CL   LIG     1      -3.071   0.684   0.013  1.00  0.00    -0.081 Cl
HETATM    2  C   LIG     1      -1.345   0.321   0.006  1.00  0.00     0.080 A 
HETATM    3  C   LIG     1      -0.408   1.368   0.004  1.00  0.00     0.070 A 
HETATM    4 CL   LIG     1      -0.918   3.052   0.010  1.00  0.00    -0.081 Cl
HETATM    5  C   LIG     1       0.960   1.082  -0.001  1.00  0.00     0.025 A 
HETATM    6  C   LIG     1       1.407  -0.241  -0.006  1.00  0.00     0.070 A 
HETATM    7 CL   LIG     1       3.140  -0.545  -0.013  1.00  0.00    -0.081 Cl
HETATM    8  C   LIG     1       0.480  -1.297  -0.004  1.00  0.00     0.080 A 
HETATM    9 CL   LIG     1       1.047  -2.967  -0.010  1.00  0.00    -0.081 Cl
HETATM   10  C   LIG     1      -0.900  -1.015   0.001  1.00  0.00     0.081 A 
HETATM   11 CL   LIG     1      -2.071  -2.336   0.003  1.00  0.00    -0.081 Cl
ENDROOT
TORSDOF 0
