REMARK  3 active torsions:
REMARK  status: ('A' for Active; 'I' for Inactive)
REMARK    1  A    between atoms: C_5  and  N_6 
REMARK    2  A    between atoms: N_6  and  C_7 
REMARK    3  A    between atoms: C_8  and  C_9 
ROOT
HETATM    1  C   LIG     1      -1.770  -0.783   0.701  1.00  0.00     0.087 A 
HETATM    2  C   LIG     1      -2.419   0.013  -0.280  1.00  0.00     0.082 A 
HETATM    3  C   LIG     1      -3.638  -0.436  -0.822  1.00  0.00     0.008 A 
HETATM    4  C   LIG     1      -4.224  -1.621  -0.373  1.00  0.00     0.000 A 
HETATM    5  C   LIG     1      -3.605  -2.375   0.623  1.00  0.00     0.002 A 
HETATM    6  C   LIG     1      -2.387  -1.957   1.159  1.00  0.00     0.019 A 
ENDROOT
BRANCH   1   7
HETATM    7  N   LIG     1      -0.476  -0.442   1.227  1.00  0.00    -0.246 NA
BRANCH   7   8
HETATM    8  C   LIG     1       0.691  -0.253   0.400  1.00  0.00     0.077 A 
HETATM    9  C   LIG     1       1.792   0.511   0.868  1.00  0.00    -0.008 A 
HETATM   10  C   LIG     1       2.962   0.610   0.067  1.00  0.00    -0.024 A 
HETATM   11  C   LIG     1       1.721   1.170   2.229  1.00  0.00     0.032 C 
HETATM   12  C   LIG     1       4.185   1.359   0.533  1.00  0.00     0.031 C 
HETATM   13  C   LIG     1       2.993  -0.009  -1.193  1.00  0.00    -0.004 A 
HETATM   14  C   LIG     1       1.897  -0.729  -1.657  1.00  0.00     0.001 A 
HETATM   15  C   LIG     1       0.758  -0.858  -0.867  1.00  0.00     0.019 A 
ENDBRANCH   7   8
ENDBRANCH   1   7
BRANCH   2  16
HETATM   16  C   LIG     1      -1.888   1.324  -0.720  1.00  0.00     0.212 C 
HETATM   17  O   LIG     1      -2.242   1.835  -1.966  1.00  0.00    -0.644 OA
HETATM   18  O   LIG     1      -1.147   2.006   0.038  1.00  0.00    -0.644 OA
ENDBRANCH   2  16
TORSDOF 3
