REMARK  1 active torsions:
REMARK  status: ('A' for Active; 'I' for Inactive)
REMARK    1  A    between atoms: C_2  and  C_3 
ROOT
HETATM    1  C   LIG     1       0.164   0.186  -0.413  1.00  0.00    -0.026 A 
HETATM    2  C   LIG     1       0.098   1.580  -0.592  1.00  0.00    -0.004 A 
HETATM    3  C   LIG     1      -1.015   2.302  -0.158  1.00  0.00    -0.000 A 
HETATM    4  C   LIG     1      -2.077   1.644   0.461  1.00  0.00    -0.000 A 
HETATM    5  C   LIG     1      -2.028   0.263   0.654  1.00  0.00    -0.004 A 
HETATM    6  C   LIG     1      -0.911  -0.481   0.232  1.00  0.00    -0.026 A 
HETATM    7  C   LIG     1      -0.896  -1.969   0.465  1.00  0.00     0.030 C 
ENDROOT
BRANCH   1   8
HETATM    8  C   LIG     1       1.391  -0.545  -0.911  1.00  0.00     0.026 C 
HETATM    9  C   LIG     1       2.534  -0.433   0.094  1.00  0.00     0.005 C 
ENDBRANCH   1   8
TORSDOF 1
