REMARK  0 active torsions:
REMARK  status: ('A' for Active; 'I' for Inactive)
ROOT
HETATM    1  C   LIG     1      -4.388   0.222   1.126  1.00  0.00     0.031 C 
HETATM    2  C   LIG     1      -3.060   0.157   0.430  1.00  0.00    -0.022 A 
HETATM    3  C   LIG     1      -1.866   0.090   1.165  1.00  0.00    -0.004 A 
HETATM    4  C   LIG     1      -0.628   0.030   0.504  1.00  0.00    -0.000 A 
HETATM    5  C   LIG     1       0.567  -0.037   1.236  1.00  0.00    -0.000 A 
HETATM    6  C   LIG     1       1.801  -0.097   0.572  1.00  0.00    -0.000 A 
HETATM    7  C   LIG     1       3.000  -0.164   1.299  1.00  0.00     0.000 A 
HETATM    8  C   LIG     1       4.226  -0.224   0.630  1.00  0.00     0.000 A 
HETATM    9  C   LIG     1       4.265  -0.217  -0.767  1.00  0.00     0.000 A 
HETATM   10  C   LIG     1       3.079  -0.151  -1.503  1.00  0.00     0.000 A 
HETATM   11  C   LIG     1       1.841  -0.091  -0.844  1.00  0.00     0.000 A 
HETATM   12  C   LIG     1       0.646  -0.024  -1.575  1.00  0.00    -0.000 A 
HETATM   13  C   LIG     1      -0.588   0.036  -0.911  1.00  0.00    -0.000 A 
HETATM   14  C   LIG     1      -1.786   0.103  -1.638  1.00  0.00    -0.000 A 
HETATM   15  C   LIG     1      -3.012   0.163  -0.972  1.00  0.00    -0.004 A 
ENDROOT
TORSDOF 0
