REMARK  0 active torsions:
REMARK  status: ('A' for Active; 'I' for Inactive)
ROOT
HETATM    1  N   LIG     1       4.609   0.577  -0.155  1.00  0.00    -0.101 NA
HETATM    2  C   LIG     1       3.270   0.075  -0.199  1.00  0.00     0.070 A 
HETATM    3  C   LIG     1       2.192   0.920   0.099  1.00  0.00     0.014 A 
HETATM    4  C   LIG     1       0.876   0.432   0.057  1.00  0.00     0.001 A 
HETATM    5  C   LIG     1      -0.206   1.275   0.355  1.00  0.00     0.000 A 
HETATM    6  C   LIG     1      -1.519   0.783   0.311  1.00  0.00     0.000 A 
HETATM    7  C   LIG     1      -2.605   1.622   0.609  1.00  0.00     0.000 A 
HETATM    8  C   LIG     1      -3.910   1.124   0.563  1.00  0.00     0.000 A 
HETATM    9  C   LIG     1      -4.142  -0.211   0.222  1.00  0.00     0.000 A 
HETATM   10  C   LIG     1      -3.070  -1.057  -0.076  1.00  0.00     0.000 A 
HETATM   11  C   LIG     1      -1.754  -0.570  -0.035  1.00  0.00     0.000 A 
HETATM   12  C   LIG     1      -0.672  -1.412  -0.332  1.00  0.00     0.000 A 
HETATM   13  C   LIG     1       0.641  -0.920  -0.289  1.00  0.00     0.000 A 
HETATM   14  C   LIG     1       1.726  -1.758  -0.586  1.00  0.00     0.001 A 
HETATM   15  C   LIG     1       3.031  -1.262  -0.541  1.00  0.00     0.014 A 
ENDROOT
TORSDOF 0
