REMARK  1 active torsions:
REMARK  status: ('A' for Active; 'I' for Inactive)
REMARK       I    between atoms: C_2  and  N_3 
REMARK    1  A    between atoms: N_3  and  C_4 
ROOT
HETATM    1  C   LIG     1      -0.282   0.059   0.120  1.00  0.00     0.110 A 
HETATM    2  C   LIG     1      -0.935  -0.983  -0.565  1.00  0.00     0.021 A 
HETATM    3  C   LIG     1      -2.293  -0.882  -0.877  1.00  0.00     0.002 A 
HETATM    4  C   LIG     1      -3.016   0.251  -0.500  1.00  0.00     0.002 A 
HETATM    5  C   LIG     1      -2.385   1.283   0.197  1.00  0.00     0.029 A 
HETATM    6  C   LIG     1      -1.021   1.192   0.513  1.00  0.00     0.149 A 
HETATM    7  O   LIG     1      -0.396   2.225   1.209  1.00  0.00    -0.189 OA
ENDROOT
BRANCH   1   8
HETATM    8  N   LIG     1       1.110  -0.044   0.471  1.00  0.00    -0.210 NA
HETATM    9  C   LIG     1       2.103  -0.653  -0.370  1.00  0.00     0.256 C 
HETATM   10  C   LIG     1       3.478  -0.919   0.155  1.00  0.00     0.100 C 
HETATM   11  O   LIG     1       1.841  -0.939  -1.569  1.00  0.00    -0.270 OA
ENDBRANCH   1   8
TORSDOF 1
