REMARK  3 active torsions:
REMARK  status: ('A' for Active; 'I' for Inactive)
REMARK    1  A    between atoms: C_2  and  C_9 
REMARK    2  A    between atoms: C_2  and  C_3 
REMARK    3  A    between atoms: C_9  and  C_10 
ROOT
HETATM    1  O   LIG     1      -0.155  -0.942   1.535  1.00  0.00    -0.218 OA
HETATM    2  C   LIG     1       0.380   0.019   0.654  1.00  0.00     0.179 C 
ENDROOT
BRANCH   2   3
HETATM    3  C   LIG     1      -0.376   0.029  -0.694  1.00  0.00     0.064 C 
BRANCH   3   4
HETATM    4  C   LIG     1      -1.854   0.257  -0.498  1.00  0.00    -0.019 A 
HETATM    5  C   LIG     1      -2.327   1.512  -0.076  1.00  0.00    -0.004 A 
HETATM    6  C   LIG     1      -3.697   1.725   0.103  1.00  0.00    -0.000 A 
HETATM    7  C   LIG     1      -4.605   0.690  -0.140  1.00  0.00    -0.000 A 
HETATM    8  C   LIG     1      -4.144  -0.559  -0.565  1.00  0.00    -0.000 A 
HETATM    9  C   LIG     1      -2.774  -0.776  -0.746  1.00  0.00    -0.004 A 
ENDBRANCH   3   4
ENDBRANCH   2   3
BRANCH   2  10
HETATM   10  C   LIG     1       1.871  -0.179   0.438  1.00  0.00     0.008 A 
HETATM   11  C   LIG     1       2.536  -1.362   0.820  1.00  0.00    -0.002 A 
HETATM   12  C   LIG     1       3.911  -1.503   0.605  1.00  0.00    -0.000 A 
HETATM   13  C   LIG     1       4.638  -0.470   0.012  1.00  0.00    -0.000 A 
HETATM   14  C   LIG     1       3.994   0.709  -0.366  1.00  0.00    -0.000 A 
HETATM   15  C   LIG     1       2.620   0.856  -0.154  1.00  0.00    -0.002 A 
ENDBRANCH   2  10
TORSDOF 3
