REMARK  3 active torsions:
REMARK  status: ('A' for Active; 'I' for Inactive)
REMARK    1  A    between atoms: C_2  and  C_4 
REMARK    2  A    between atoms: C_4  and  O_5 
REMARK    3  A    between atoms: O_5  and  C_6 
ROOT
HETATM    1  C   LIG     1      -0.371   0.011   0.536  1.00  0.00     0.105 A 
HETATM    2  C   LIG     1      -0.965   1.279   0.582  1.00  0.00     0.025 A 
HETATM    3  C   LIG     1      -2.309   1.447   0.237  1.00  0.00     0.002 A 
HETATM    4  C   LIG     1      -3.075   0.344  -0.143  1.00  0.00     0.001 A 
HETATM    5  C   LIG     1      -2.503  -0.930  -0.166  1.00  0.00     0.013 A 
HETATM    6  C   LIG     1      -1.157  -1.109   0.178  1.00  0.00     0.080 A 
HETATM    7 CL   LIG     1      -0.534  -2.753   0.244  1.00  0.00    -0.080 Cl
ENDROOT
BRANCH   1   8
HETATM    8  O   LIG     1       0.985  -0.090   0.877  1.00  0.00    -0.319 OA
BRANCH   8   9
HETATM    9  C   LIG     1       1.943  -0.834   0.129  1.00  0.00     0.246 C 
BRANCH   9  10
HETATM   10  C   LIG     1       3.166  -0.002  -0.061  1.00  0.00     0.217 C 
HETATM   11  O   LIG     1       4.091  -0.033   0.795  1.00  0.00    -0.645 OA
HETATM   12  O   LIG     1       3.262   0.847  -1.159  1.00  0.00    -0.645 OA
ENDBRANCH   9  10
ENDBRANCH   8   9
ENDBRANCH   1   8
TORSDOF 3
