REMARK  2 active torsions:
REMARK  status: ('A' for Active; 'I' for Inactive)
REMARK    1  A    between atoms: C_2  and  C_3 
REMARK       I    between atoms: C_2  and  N_9 
REMARK       I    between atoms: N_9  and  C_10 
REMARK    2  A    between atoms: C_10  and  C_11 
ROOT
HETATM    1  O   LIG     1      -1.517   2.088  -2.308  1.00  0.00    -0.265 OA
HETATM    2  C   LIG     1      -1.203   1.251  -1.420  1.00  0.00     0.282 C 
HETATM    3  N   LIG     1       0.187   1.046  -1.123  1.00  0.00    -0.169 NA
HETATM    4  C   LIG     1       0.679   0.811   0.207  1.00  0.00     0.282 C 
HETATM    5  O   LIG     1      -0.053   1.078   1.199  1.00  0.00    -0.265 OA
ENDROOT
BRANCH   2   6
HETATM    6  C   LIG     1      -2.270   0.478  -0.741  1.00  0.00     0.058 A 
HETATM    7  C   LIG     1      -2.027  -0.825  -0.269  1.00  0.00     0.005 A 
HETATM    8  C   LIG     1      -3.045  -1.551   0.358  1.00  0.00     0.000 A 
HETATM    9  C   LIG     1      -4.315  -0.989   0.510  1.00  0.00     0.000 A 
HETATM   10  C   LIG     1      -4.571   0.298   0.031  1.00  0.00     0.000 A 
HETATM   11  C   LIG     1      -3.557   1.028  -0.597  1.00  0.00     0.005 A 
ENDBRANCH   2   6
BRANCH   4  12
HETATM   12  C   LIG     1       2.049   0.289   0.430  1.00  0.00     0.058 A 
HETATM   13  C   LIG     1       2.667   0.438   1.686  1.00  0.00     0.005 A 
HETATM   14  C   LIG     1       3.956  -0.059   1.906  1.00  0.00     0.000 A 
HETATM   15  C   LIG     1       4.638  -0.714   0.879  1.00  0.00     0.000 A 
HETATM   16  C   LIG     1       4.032  -0.878  -0.368  1.00  0.00     0.000 A 
HETATM   17  C   LIG     1       2.744  -0.383  -0.594  1.00  0.00     0.005 A 
ENDBRANCH   4  12
TORSDOF 2
