REMARK  0 active torsions:
REMARK  status: ('A' for Active; 'I' for Inactive)
ROOT
HETATM    1 BR   LIG     1      -2.246  -2.354   0.070  1.00  0.00    -0.048 Br
HETATM    2  C   LIG     1      -0.941  -0.952   0.028  1.00  0.00     0.041 A 
HETATM    3  C   LIG     1       0.416  -1.300   0.030  1.00  0.00     0.014 A 
HETATM    4  C   LIG     1       1.399  -0.305   0.001  1.00  0.00     0.035 A 
HETATM    5 BR   LIG     1       3.247  -0.787   0.003  1.00  0.00    -0.049 Br
HETATM    6  C   LIG     1       1.028   1.042  -0.031  1.00  0.00     0.007 A 
HETATM    7  C   LIG     1      -0.325   1.395  -0.033  1.00  0.00     0.007 A 
HETATM    8  C   LIG     1      -1.314   0.404  -0.004  1.00  0.00     0.041 A 
HETATM    9 BR   LIG     1      -3.152   0.942  -0.008  1.00  0.00    -0.048 Br
ENDROOT
TORSDOF 0
