REMARK  0 active torsions:
REMARK  status: ('A' for Active; 'I' for Inactive)
ROOT
HETATM    1  O   LIG     1       0.659   2.263  -0.141  1.00  0.00    -0.244 OA
HETATM    2  C   LIG     1       0.031   1.172  -0.051  1.00  0.00     0.353 A 
HETATM    3  N   LIG     1      -1.327   1.190   0.046  1.00  0.00    -0.153 NA
HETATM    4  C   LIG     1      -2.038   0.036   0.145  1.00  0.00     0.285 A 
HETATM    5  O   LIG     1      -3.294   0.072   0.233  1.00  0.00    -0.265 OA
HETATM    6  N   LIG     1       0.707  -0.021  -0.050  1.00  0.00    -0.277 N 
HETATM    7  C   LIG     1       0.014  -1.194   0.049  1.00  0.00     0.085 A 
HETATM    8  C   LIG     1      -1.375  -1.188   0.148  1.00  0.00     0.081 A 
HETATM    9  C   LIG     1       2.171  -0.042  -0.154  1.00  0.00     0.135 C 
ENDROOT
TORSDOF 0
