REMARK  0 active torsions:
REMARK  status: ('A' for Active; 'I' for Inactive)
ROOT
HETATM    1  C   LIG     1       3.190  -0.379  -0.144  1.00  0.00     0.074 C 
HETATM    2  C   LIG     1       1.704  -0.251  -0.112  1.00  0.00     0.140 A 
HETATM    3  N   LIG     1       0.871  -1.099  -0.773  1.00  0.00    -0.229 NA
HETATM    4  C   LIG     1      -0.346  -0.614  -0.467  1.00  0.00     0.100 A 
HETATM    5  C   LIG     1      -1.586  -1.100  -0.878  1.00  0.00     0.021 A 
HETATM    6  C   LIG     1      -2.735  -0.422  -0.427  1.00  0.00     0.002 A 
HETATM    7  C   LIG     1      -2.616   0.710   0.412  1.00  0.00     0.002 A 
HETATM    8  C   LIG     1      -1.347   1.174   0.808  1.00  0.00     0.021 A 
HETATM    9  C   LIG     1      -0.235   0.477   0.342  1.00  0.00     0.100 A 
HETATM   10  N   LIG     1       1.060   0.723   0.577  1.00  0.00    -0.229 NA
ENDROOT
TORSDOF 0
