REMARK  2 active torsions:
REMARK  status: ('A' for Active; 'I' for Inactive)
REMARK    1  A    between atoms: C_2  and  C_5 
REMARK    2  A    between atoms: C_2  and  C_3 
ROOT
HETATM    1 CL   LIG     1       0.009   0.015   2.417  1.00  0.00    -0.115 Cl
HETATM    2  C   LIG     1       0.159   0.252   0.648  1.00  0.00     0.080 C 
ENDROOT
BRANCH   2   3
HETATM    3  C   LIG     1      -1.045  -0.386  -0.072  1.00  0.00     0.016 C 
HETATM    4  C   LIG     1      -2.360   0.317   0.266  1.00  0.00     0.001 C 
ENDBRANCH   2   3
BRANCH   2   5
HETATM    5  C   LIG     1       1.498  -0.356   0.189  1.00  0.00     0.016 C 
HETATM    6  C   LIG     1       1.898   0.077  -1.223  1.00  0.00     0.001 C 
ENDBRANCH   2   5
TORSDOF 2
