REMARK  0 active torsions:
REMARK  status: ('A' for Active; 'I' for Inactive)
ROOT
HETATM    1  O   LIG     1      -1.585   2.049   0.054  1.00  0.00    -0.271 OA
HETATM    2  C   LIG     1      -0.790   1.073   0.028  1.00  0.00     0.252 A 
HETATM    3  C   LIG     1      -1.217  -0.339   0.022  1.00  0.00     0.092 A 
HETATM    4  C   LIG     1       0.113  -1.110  -0.014  1.00  0.00     0.036 A 
HETATM    5  C   LIG     1       1.251  -0.069  -0.027  1.00  0.00     0.129 A 
HETATM    6  N   LIG     1       0.610   1.230  -0.000  1.00  0.00    -0.238 NA
ENDROOT
TORSDOF 0
