REMARK  0 active torsions:
REMARK  status: ('A' for Active; 'I' for Inactive)
ROOT
HETATM    1  C   LIG     1      -1.691  -0.284   0.064  1.00  0.00     0.031 C 
HETATM    2  C   LIG     1      -0.244   0.093   0.030  1.00  0.00    -0.015 A 
HETATM    3  C   LIG     1       0.197   1.400   0.204  1.00  0.00     0.031 A 
HETATM    4  S   LIG     1       1.873   1.398   0.096  1.00  0.00    -0.086 SA
HETATM    5  C   LIG     1       2.056  -0.251  -0.171  1.00  0.00     0.035 A 
HETATM    6  C   LIG     1       0.794  -0.828  -0.179  1.00  0.00     0.003 A 
ENDROOT
TORSDOF 0
