REMARK  2 active torsions:
REMARK  status: ('A' for Active; 'I' for Inactive)
REMARK    1  A    between atoms: C_8  and  N_9 
REMARK    2  A    between atoms: C_10  and  N_11 
ROOT
HETATM    1 CL   LIG     1       3.916  -2.409   1.247  1.00  0.00    -0.082 Cl
HETATM    2  C   LIG     1       2.699  -1.396   0.492  1.00  0.00     0.058 A 
HETATM    3  C   LIG     1       2.864  -0.008   0.462  1.00  0.00     0.009 A 
HETATM    4  C   LIG     1       1.895   0.810  -0.143  1.00  0.00    -0.003 A 
HETATM    5  C   LIG     1       2.080   2.302  -0.166  1.00  0.00     0.033 C 
HETATM    6  C   LIG     1       1.569  -1.978  -0.088  1.00  0.00     0.013 A 
HETATM    7  C   LIG     1       0.598  -1.174  -0.689  1.00  0.00     0.020 A 
HETATM    8  C   LIG     1       0.738   0.226  -0.698  1.00  0.00     0.079 A 
ENDROOT
BRANCH   8   9
HETATM    9  N   LIG     1      -0.243   1.059  -1.341  1.00  0.00    -0.226 NA
HETATM   10  C   LIG     1      -1.538   0.933  -1.276  1.00  0.00     0.174 C 
BRANCH  10  11
HETATM   11  N   LIG     1      -2.186  -0.000  -0.397  1.00  0.00    -0.328 N 
HETATM   12  C   LIG     1      -3.314  -0.772  -0.911  1.00  0.00     0.127 C 
HETATM   13  C   LIG     1      -1.904  -0.006   1.041  1.00  0.00     0.127 C 
ENDBRANCH  10  11
ENDBRANCH   8   9
TORSDOF 2
