REMARK  1 active torsions:
REMARK  status: ('A' for Active; 'I' for Inactive)
REMARK    1  A    between atoms: C_2  and  C_3 
ROOT
HETATM    1  C   LIG     1       0.655  -0.047  -0.021  1.00  0.00     0.065 A 
HETATM    2  C   LIG     1      -0.233   0.990   0.320  1.00  0.00     0.012 A 
HETATM    3  C   LIG     1      -1.616   0.784   0.266  1.00  0.00     0.030 A 
HETATM    4  I   LIG     1      -2.935   2.348   0.780  1.00  0.00    -0.043 I 
HETATM    5  C   LIG     1      -2.124  -0.457  -0.128  1.00  0.00     0.006 A 
HETATM    6  C   LIG     1      -1.252  -1.493  -0.468  1.00  0.00     0.001 A 
HETATM    7  C   LIG     1       0.131  -1.292  -0.416  1.00  0.00     0.006 A 
ENDROOT
BRANCH   1   8
HETATM    8  C   LIG     1       2.117   0.172   0.036  1.00  0.00     0.211 C 
HETATM    9  O   LIG     1       2.915  -0.756  -0.269  1.00  0.00    -0.644 OA
HETATM   10  O   LIG     1       2.627   1.407   0.428  1.00  0.00    -0.644 OA
ENDBRANCH   1   8
TORSDOF 1
