REMARK  2 active torsions:
REMARK  status: ('A' for Active; 'I' for Inactive)
REMARK    1  A    between atoms: C_2  and  C_3 
REMARK    2  A    between atoms: C_2  and  O_10 
ROOT
HETATM    1  C   LIG     1       0.287  -0.242  -0.327  1.00  0.00     0.063 A 
HETATM    2  C   LIG     1      -0.226   0.795   0.471  1.00  0.00     0.006 A 
HETATM    3  C   LIG     1      -1.599   0.882   0.724  1.00  0.00     0.014 A 
HETATM    4  C   LIG     1      -2.479  -0.064   0.183  1.00  0.00     0.070 A 
HETATM    5  N   LIG     1      -3.882   0.026   0.443  1.00  0.00    -0.101 NA
HETATM    6  C   LIG     1      -1.974  -1.101  -0.613  1.00  0.00     0.014 A 
HETATM    7  C   LIG     1      -0.602  -1.190  -0.867  1.00  0.00     0.006 A 
ENDROOT
BRANCH   1   8
HETATM    8  C   LIG     1       1.740  -0.332  -0.593  1.00  0.00     0.296 C 
HETATM    9  O   LIG     1       2.197  -1.265  -1.310  1.00  0.00    -0.259 OA
BRANCH   8  10
HETATM   10  O   LIG     1       2.608   0.621  -0.047  1.00  0.00    -0.296 OA
HETATM   11  C   LIG     1       4.014   0.592  -0.264  1.00  0.00     0.185 C 
ENDBRANCH   8  10
ENDBRANCH   1   8
TORSDOF 2
