REMARK  1 active torsions:
REMARK  status: ('A' for Active; 'I' for Inactive)
REMARK    1  A    between atoms: C_4  and  C_5 
ROOT
HETATM    1  O   LIG     1       2.027   0.406   2.304  1.00  0.00    -0.296 OA
HETATM    2  C   LIG     1       1.429   0.249   1.250  1.00  0.00     0.150 C 
HETATM    3  C   LIG     1      -0.019   0.637   1.143  1.00  0.00     0.069 C 
HETATM    4  C   LIG     1      -0.833  -0.512   0.506  1.00  0.00     0.026 C 
HETATM    5  C   LIG     1      -0.137  -1.171  -0.726  1.00  0.00     0.005 C 
HETATM    6  C   LIG     1       1.172  -0.479  -1.140  1.00  0.00     0.008 C 
HETATM    7  C   LIG     1       2.139  -0.344   0.054  1.00  0.00     0.058 C 
HETATM    8  C   LIG     1       3.351   0.509  -0.334  1.00  0.00     0.008 C 
ENDROOT
BRANCH   4   9
HETATM    9  C   LIG     1      -2.238  -0.035   0.164  1.00  0.00    -0.044 C 
HETATM   10  C   LIG     1      -2.461   1.005  -0.905  1.00  0.00     0.026 C 
HETATM   11  C   LIG     1      -3.302  -0.536   0.811  1.00  0.00    -0.009 C 
ENDBRANCH   4   9
TORSDOF 1
