REMARK  3 active torsions:
REMARK  status: ('A' for Active; 'I' for Inactive)
REMARK    1  A    between atoms: C_2  and  O_3 
REMARK    2  A    between atoms: O_3  and  C_4 
REMARK    3  A    between atoms: C_7  and  N_8 
REMARK       I    between atoms: N_8  and  C_9 
ROOT
HETATM    1  C   LIG     1      -1.530  -0.039  -0.775  1.00  0.00     0.094 A 
HETATM    2  C   LIG     1      -0.610   0.702  -1.525  1.00  0.00     0.026 A 
HETATM    3  C   LIG     1       0.762   0.596  -1.277  1.00  0.00     0.021 A 
HETATM    4  C   LIG     1       1.236  -0.250  -0.260  1.00  0.00     0.085 A 
HETATM    5  C   LIG     1       0.318  -1.015   0.473  1.00  0.00     0.021 A 
HETATM    6  C   LIG     1      -1.054  -0.908   0.226  1.00  0.00     0.026 A 
ENDROOT
BRANCH   4   7
HETATM    7  N   LIG     1       2.643  -0.396   0.002  1.00  0.00    -0.212 NA
HETATM    8  C   LIG     1       3.603   0.663  -0.135  1.00  0.00     0.256 C 
HETATM    9  C   LIG     1       5.062   0.361  -0.031  1.00  0.00     0.100 C 
HETATM   10  O   LIG     1       3.227   1.860  -0.258  1.00  0.00    -0.270 OA
ENDBRANCH   4   7
BRANCH   1  11
HETATM   11  O   LIG     1      -2.895   0.108  -1.069  1.00  0.00    -0.331 OA
BRANCH  11  12
HETATM   12  C   LIG     1      -3.973  -0.445  -0.312  1.00  0.00     0.149 C 
HETATM   13  C   LIG     1      -4.152   0.302   1.005  1.00  0.00     0.035 C 
ENDBRANCH  11  12
ENDBRANCH   1  11
TORSDOF 3
