REMARK  0 active torsions:
REMARK  status: ('A' for Active; 'I' for Inactive)
ROOT
HETATM    1  N   LIG     1       1.163  -0.387  -0.300  1.00  0.00    -0.073 NA
HETATM    2  C   LIG     1       0.062   0.457   0.038  1.00  0.00     0.194 C 
HETATM    3  N   LIG     1      -1.230  -0.106   0.259  1.00  0.00    -0.073 NA
HETATM    4  S   LIG     1       0.284   2.073   0.173  1.00  0.00    -0.048 SA
ENDROOT
TORSDOF 0
