REMARK  0 active torsions:
REMARK  status: ('A' for Active; 'I' for Inactive)
ROOT
HETATM    1  N   LIG     1       2.317  -0.061   0.239  1.00  0.00    -0.101 NA
HETATM    2  C   LIG     1       0.895  -0.024   0.092  1.00  0.00     0.070 A 
HETATM    3  C   LIG     1       0.109  -1.095   0.545  1.00  0.00     0.014 A 
HETATM    4  C   LIG     1      -1.281  -1.056   0.401  1.00  0.00     0.001 A 
HETATM    5  C   LIG     1      -1.894   0.050  -0.195  1.00  0.00     0.000 A 
HETATM    6  C   LIG     1      -1.116   1.119  -0.648  1.00  0.00     0.001 A 
HETATM    7  C   LIG     1       0.275   1.084  -0.506  1.00  0.00     0.014 A 
ENDROOT
TORSDOF 0
