REMARK  2 active torsions:
REMARK  status: ('A' for Active; 'I' for Inactive)
REMARK    1  A    between atoms: C_2  and  C_3 
REMARK       I    between atoms: C_2  and  N_5 
REMARK    2  A    between atoms: N_5  and  C_6 
ROOT
HETATM    1  C   LIG     1      -0.907  -0.339  -0.057  1.00  0.00     0.084 A 
HETATM    2  C   LIG     1      -1.881  -1.337   0.108  1.00  0.00     0.019 A 
HETATM    3  C   LIG     1      -3.240  -1.025  -0.004  1.00  0.00     0.002 A 
HETATM    4  C   LIG     1      -3.637   0.289  -0.265  1.00  0.00     0.000 A 
HETATM    5  C   LIG     1      -2.677   1.294  -0.407  1.00  0.00     0.002 A 
HETATM    6  C   LIG     1      -1.317   0.986  -0.297  1.00  0.00     0.019 A 
ENDROOT
BRANCH   1   7
HETATM    7  N   LIG     1       0.483  -0.680   0.087  1.00  0.00    -0.212 NA
HETATM    8  C   LIG     1       1.546  -0.055  -0.648  1.00  0.00     0.256 C 
HETATM    9  O   LIG     1       1.296   0.698  -1.628  1.00  0.00    -0.270 OA
BRANCH   8  10
HETATM   10  C   LIG     1       2.972  -0.299  -0.255  1.00  0.00     0.090 C 
HETATM   11  C   LIG     1       3.354   0.569   0.939  1.00  0.00     0.010 C 
ENDBRANCH   8  10
ENDBRANCH   1   7
TORSDOF 2
