REMARK  3 active torsions:
REMARK  status: ('A' for Active; 'I' for Inactive)
REMARK    1  A    between atoms: C_2  and  O_3 
REMARK    2  A    between atoms: O_3  and  C_4 
REMARK    3  A    between atoms: C_4  and  C_5 
ROOT
HETATM    1  C   LIG     1      -0.596  -0.452   0.073  1.00  0.00     0.008 A 
HETATM    2  C   LIG     1      -1.102   0.629   0.813  1.00  0.00    -0.002 A 
HETATM    3  C   LIG     1      -2.429   1.039   0.645  1.00  0.00    -0.000 A 
HETATM    4  C   LIG     1      -3.258   0.373  -0.262  1.00  0.00    -0.000 A 
HETATM    5  C   LIG     1      -2.761  -0.704  -1.002  1.00  0.00    -0.000 A 
HETATM    6  C   LIG     1      -1.435  -1.117  -0.837  1.00  0.00    -0.002 A 
ENDROOT
BRANCH   1   7
HETATM    7  C   LIG     1       0.830  -0.885   0.261  1.00  0.00     0.180 C 
BRANCH   7   8
HETATM    8  O   LIG     1       1.702   0.162  -0.153  1.00  0.00    -0.282 OA
BRANCH   8   9
HETATM    9  C   LIG     1       3.093   0.060  -0.074  1.00  0.00     0.374 C 
HETATM   10  N   LIG     1       3.904   1.149  -0.506  1.00  0.00    -0.032 NA
HETATM   11  O   LIG     1       3.638  -0.985   0.375  1.00  0.00    -0.242 OA
ENDBRANCH   8   9
ENDBRANCH   7   8
ENDBRANCH   1   7
TORSDOF 3
