REMARK  1 active torsions:
REMARK  status: ('A' for Active; 'I' for Inactive)
REMARK    1  A    between atoms: C_2  and  C_3 
ROOT
HETATM    1  C   LIG     1       0.819   0.025   0.291  1.00  0.00    -0.022 A 
HETATM    2  C   LIG     1       0.086  -1.140   0.574  1.00  0.00    -0.004 A 
HETATM    3  C   LIG     1      -1.286  -1.191   0.312  1.00  0.00    -0.004 A 
HETATM    4  C   LIG     1      -1.944  -0.084  -0.244  1.00  0.00    -0.022 A 
HETATM    5  C   LIG     1      -3.423  -0.127  -0.487  1.00  0.00     0.031 C 
HETATM    6  C   LIG     1      -1.218   1.088  -0.506  1.00  0.00    -0.004 A 
HETATM    7  C   LIG     1       0.154   1.140  -0.244  1.00  0.00    -0.004 A 
ENDROOT
BRANCH   1   8
HETATM    8  C   LIG     1       2.297   0.087   0.578  1.00  0.00     0.026 C 
HETATM    9  C   LIG     1       3.108   0.121  -0.715  1.00  0.00     0.005 C 
ENDBRANCH   1   8
TORSDOF 1
