REMARK  2 active torsions:
REMARK  status: ('A' for Active; 'I' for Inactive)
REMARK    1  A    between atoms: C_2  and  O_3 
REMARK    2  A    between atoms: O_3  and  C_4 
ROOT
HETATM    1  C   LIG     1       0.186   0.081  -0.592  1.00  0.00     0.124 C 
HETATM    2  C   LIG     1      -0.405  -0.874   0.464  1.00  0.00     0.030 C 
HETATM    3  C   LIG     1      -1.914  -1.055   0.261  1.00  0.00     0.003 C 
HETATM    4  C   LIG     1      -2.639   0.295   0.283  1.00  0.00     0.000 C 
HETATM    5  C   LIG     1      -2.054   1.250  -0.764  1.00  0.00     0.003 C 
HETATM    6  C   LIG     1      -0.545   1.431  -0.560  1.00  0.00     0.030 C 
ENDROOT
BRANCH   1   7
HETATM    7  O   LIG     1       1.573   0.301  -0.334  1.00  0.00    -0.304 OA
BRANCH   7   8
HETATM    8  C   LIG     1       2.569  -0.641  -0.610  1.00  0.00     0.272 C 
HETATM    9  C   LIG     1       3.983  -0.331  -0.254  1.00  0.00     0.106 C 
HETATM   10  O   LIG     1       2.286  -1.740  -1.160  1.00  0.00    -0.264 OA
ENDBRANCH   7   8
ENDBRANCH   1   7
TORSDOF 2
