REMARK  1 active torsions:
REMARK  status: ('A' for Active; 'I' for Inactive)
REMARK       I    between atoms: C_2  and  N_3 
REMARK    1  A    between atoms: N_3  and  C_4 
ROOT
HETATM    1  C   LIG     1      -0.283   0.020   0.192  1.00  0.00     0.084 A 
HETATM    2  C   LIG     1      -1.118  -0.389   1.243  1.00  0.00     0.020 A 
HETATM    3  C   LIG     1      -2.494  -0.535   1.039  1.00  0.00     0.007 A 
HETATM    4  C   LIG     1      -0.853   0.318  -1.060  1.00  0.00     0.020 A 
HETATM    5  C   LIG     1      -2.229   0.172  -1.260  1.00  0.00     0.007 A 
HETATM    6  C   LIG     1      -3.050  -0.259  -0.214  1.00  0.00     0.030 A 
HETATM    7  I   LIG     1      -5.125  -0.476  -0.519  1.00  0.00    -0.043 I 
ENDROOT
BRANCH   1   8
HETATM    8  N   LIG     1       1.125   0.184   0.434  1.00  0.00    -0.212 NA
HETATM    9  C   LIG     1       2.147  -0.063  -0.544  1.00  0.00     0.256 C 
HETATM   10  C   LIG     1       3.559   0.332  -0.257  1.00  0.00     0.100 C 
HETATM   11  O   LIG     1       1.874  -0.644  -1.629  1.00  0.00    -0.270 OA
ENDBRANCH   1   8
TORSDOF 1
