REMARK  3 active torsions:
REMARK  status: ('A' for Active; 'I' for Inactive)
REMARK    1  A    between atoms: C_2  and  C_3 
REMARK    2  A    between atoms: C_2  and  C_5 
REMARK    3  A    between atoms: C_5  and  C_6 
ROOT
HETATM    1  O   LIG     1       0.680   0.466  -1.520  1.00  0.00    -0.224 OA
HETATM    2  C   LIG     1       0.624  -0.106  -0.236  1.00  0.00     0.152 C 
ENDROOT
BRANCH   2   3
HETATM    3  C   LIG     1       1.750   0.471   0.641  1.00  0.00     0.033 C 
HETATM    4  C   LIG     1       3.134   0.091   0.118  1.00  0.00     0.003 C 
ENDBRANCH   2   3
BRANCH   2   5
HETATM    5  C   LIG     1      -0.747   0.197   0.393  1.00  0.00     0.033 C 
BRANCH   5   6
HETATM    6  C   LIG     1      -1.890  -0.453  -0.399  1.00  0.00     0.003 C 
HETATM    7  C   LIG     1      -3.241  -0.168   0.250  1.00  0.00     0.000 C 
ENDBRANCH   5   6
ENDBRANCH   2   5
TORSDOF 3
