REMARK  3 active torsions:
REMARK  status: ('A' for Active; 'I' for Inactive)
REMARK    1  A    between atoms: C_2  and  C_3 
REMARK    2  A    between atoms: C_3  and  C_4 
REMARK    3  A    between atoms: C_4  and  O_5 
ROOT
HETATM    1  C   LIG     1       0.943   0.330   0.357  1.00  0.00     0.272 C 
HETATM    2  O   LIG     1       1.273   0.211   1.569  1.00  0.00    -0.264 OA
ENDROOT
BRANCH   1   3
HETATM    3  C   LIG     1      -0.474   0.653   0.000  1.00  0.00     0.096 C 
BRANCH   3   4
HETATM    4  C   LIG     1      -1.416  -0.480   0.419  1.00  0.00     0.010 C 
HETATM    5  C   LIG     1      -2.860  -0.167   0.037  1.00  0.00     0.001 C 
ENDBRANCH   3   4
ENDBRANCH   1   3
BRANCH   1   6
HETATM    6  O   LIG     1       1.890   0.172  -0.658  1.00  0.00    -0.299 OA
HETATM    7  C   LIG     1       3.253  -0.137  -0.392  1.00  0.00     0.184 C 
ENDBRANCH   1   6
TORSDOF 3
