REMARK  4 active torsions:
REMARK  status: ('A' for Active; 'I' for Inactive)
REMARK    1  A    between atoms: C_2  and  C_3 
REMARK    2  A    between atoms: C_3  and  C_4 
REMARK    3  A    between atoms: C_4  and  C_5 
REMARK    4  A    between atoms: C_5  and  O_6 
ROOT
HETATM    1  C   LIG     1       0.093  -0.288  -0.144  1.00  0.00     0.096 C 
ENDROOT
BRANCH   1   2
HETATM    2  C   LIG     1      -0.969   0.819  -0.027  1.00  0.00     0.010 C 
BRANCH   2   3
HETATM    3  C   LIG     1      -2.394   0.296  -0.266  1.00  0.00     0.001 C 
HETATM    4  C   LIG     1      -2.901  -0.583   0.877  1.00  0.00     0.000 C 
ENDBRANCH   2   3
ENDBRANCH   1   2
BRANCH   1   5
HETATM    5  C   LIG     1       1.498   0.231  -0.015  1.00  0.00     0.272 C 
HETATM    6  O   LIG     1       1.723   1.457   0.188  1.00  0.00    -0.264 OA
BRANCH   5   7
HETATM    7  O   LIG     1       2.558  -0.673  -0.120  1.00  0.00    -0.299 OA
HETATM    8  C   LIG     1       3.919  -0.275  -0.009  1.00  0.00     0.184 C 
ENDBRANCH   5   7
ENDBRANCH   1   5
TORSDOF 4
