REMARK  2 active torsions:
REMARK  status: ('A' for Active; 'I' for Inactive)
REMARK    1  A    between atoms: C_2  and  C_3 
REMARK    2  A    between atoms: C_3  and  C_4 
ROOT
HETATM    1  C   LIG     1      -0.573   0.160   0.125  1.00  0.00     0.003 C 
HETATM    2  C   LIG     1      -0.866  -0.505  -1.236  1.00  0.00     0.000 C 
HETATM    3  C   LIG     1      -1.554   1.336   0.314  1.00  0.00     0.000 C 
HETATM    4  C   LIG     1      -0.815  -0.860   1.259  1.00  0.00     0.000 C 
ENDROOT
BRANCH   1   5
HETATM    5  C   LIG     1       0.879   0.728   0.182  1.00  0.00     0.036 C 
BRANCH   5   6
HETATM    6  C   LIG     1       2.013  -0.279  -0.073  1.00  0.00     0.182 C 
HETATM    7  O   LIG     1       2.112  -0.568  -1.440  1.00  0.00    -0.221 OA
ENDBRANCH   5   6
ENDBRANCH   1   5
TORSDOF 2
