REMARK  4 active torsions:
REMARK  status: ('A' for Active; 'I' for Inactive)
REMARK    1  A    between atoms: C_2  and  C_5 
REMARK    2  A    between atoms: C_5  and  C_6 
REMARK    3  A    between atoms: C_6  and  C_7 
REMARK    4  A    between atoms: C_7  and  C_8 
ROOT
HETATM    1  C   LIG     1      -0.465  -0.706  -0.159  1.00  0.00     0.030 C 
ENDROOT
BRANCH   1   2
HETATM    2  C   LIG     1      -1.852  -0.471   0.508  1.00  0.00     0.127 C 
HETATM    3  C   LIG     1      -1.755   0.523   1.685  1.00  0.00     0.033 C 
HETATM    4  C   LIG     1      -2.880   0.046  -0.513  1.00  0.00     0.033 C 
HETATM    5  O   LIG     1      -2.333  -1.705   0.990  1.00  0.00    -0.226 OA
ENDBRANCH   1   2
BRANCH   1   6
HETATM    6  C   LIG     1       0.213   0.560  -0.722  1.00  0.00     0.003 C 
BRANCH   6   7
HETATM    7  C   LIG     1       1.499   0.247  -1.510  1.00  0.00     0.000 C 
BRANCH   7   8
HETATM    8  C   LIG     1       2.626  -0.399  -0.686  1.00  0.00     0.000 C 
HETATM    9  C   LIG     1       3.104   0.481   0.469  1.00  0.00     0.000 C 
ENDBRANCH   7   8
ENDBRANCH   6   7
ENDBRANCH   1   6
TORSDOF 4
