REMARK  2 active torsions:
REMARK  status: ('A' for Active; 'I' for Inactive)
REMARK    1  A    between atoms: C_2  and  C_5 
REMARK    2  A    between atoms: C_5  and  C_6 
ROOT
HETATM    1  C   LIG     1      -2.246   0.761   1.047  1.00  0.00     0.033 C 
HETATM    2  C   LIG     1      -1.111   0.332   0.093  1.00  0.00     0.127 C 
HETATM    3  C   LIG     1      -1.305  -1.154  -0.273  1.00  0.00     0.033 C 
HETATM    4  O   LIG     1      -1.174   1.129  -1.067  1.00  0.00    -0.226 OA
ENDROOT
BRANCH   2   5
HETATM    5  C   LIG     1       0.247   0.586   0.816  1.00  0.00     0.030 C 
BRANCH   5   6
HETATM    6  C   LIG     1       1.576   0.195   0.103  1.00  0.00     0.002 C 
HETATM    7  C   LIG     1       1.666   0.651  -1.358  1.00  0.00     0.000 C 
HETATM    8  C   LIG     1       1.937  -1.292   0.249  1.00  0.00     0.000 C 
ENDBRANCH   5   6
ENDBRANCH   2   5
TORSDOF 2
