REMARK  2 active torsions:
REMARK  status: ('A' for Active; 'I' for Inactive)
REMARK    1  A    between atoms: C_2  and  C_4 
REMARK    2  A    between atoms: C_4  and  C_5 
ROOT
HETATM    1  C   LIG     1      -2.018  -0.322   0.889  1.00  0.00     0.018 C 
HETATM    2  C   LIG     1      -1.410  -0.362  -0.514  1.00  0.00     0.080 C 
HETATM    3 CL   LIG     1      -1.897   1.089  -1.438  1.00  0.00    -0.115 Cl
ENDROOT
BRANCH   2   4
HETATM    4  C   LIG     1       0.123  -0.530  -0.501  1.00  0.00     0.016 C 
BRANCH   4   5
HETATM    5  C   LIG     1       0.871   0.605   0.220  1.00  0.00     0.001 C 
HETATM    6  C   LIG     1       2.382   0.428   0.099  1.00  0.00     0.000 C 
ENDBRANCH   4   5
ENDBRANCH   2   4
TORSDOF 2
