REMARK  3 active torsions:
REMARK  status: ('A' for Active; 'I' for Inactive)
REMARK    1  A    between atoms: C_2  and  C_5 
REMARK    2  A    between atoms: C_5  and  C_6 
REMARK    3  A    between atoms: C_6  and  C_7 
ROOT
HETATM    1  C   LIG     1      -2.039  -0.323   1.153  1.00  0.00     0.033 C 
HETATM    2  C   LIG     1      -1.679  -0.375  -0.341  1.00  0.00     0.127 C 
HETATM    3  C   LIG     1      -1.991   0.991  -0.990  1.00  0.00     0.033 C 
HETATM    4  O   LIG     1      -2.496  -1.359  -0.931  1.00  0.00    -0.226 OA
ENDROOT
BRANCH   2   5
HETATM    5  C   LIG     1      -0.189  -0.779  -0.545  1.00  0.00     0.030 C 
BRANCH   5   6
HETATM    6  C   LIG     1       0.841   0.171   0.094  1.00  0.00     0.003 C 
BRANCH   6   7
HETATM    7  C   LIG     1       2.271  -0.306  -0.190  1.00  0.00     0.000 C 
HETATM    8  C   LIG     1       3.300   0.627   0.442  1.00  0.00     0.000 C 
ENDBRANCH   6   7
ENDBRANCH   5   6
ENDBRANCH   2   5
TORSDOF 3
