REMARK  2 active torsions:
REMARK  status: ('A' for Active; 'I' for Inactive)
REMARK    1  A    between atoms: C_2  and  O_3 
REMARK    2  A    between atoms: O_3  and  C_4 
ROOT
HETATM    1  O   LIG     1       0.192   0.595   0.657  1.00  0.00    -0.357 OA
ENDROOT
BRANCH   1   2
HETATM    2  C   LIG     1       1.482   0.011   0.666  1.00  0.00     0.142 C 
HETATM    3  C   LIG     1       2.320   0.558  -0.484  1.00  0.00     0.035 C 
ENDBRANCH   1   2
BRANCH   1   4
HETATM    4  C   LIG     1      -0.729  -0.183  -0.090  1.00  0.00     0.116 C 
HETATM    5  C   LIG     1      -1.487  -1.128   0.848  1.00  0.00     0.032 C 
HETATM    6  C   LIG     1      -1.707   0.762  -0.787  1.00  0.00     0.032 C 
ENDBRANCH   1   4
TORSDOF 2
