REMARK  3 active torsions:
REMARK  status: ('A' for Active; 'I' for Inactive)
REMARK    1  A    between atoms: C_2  and  C_4 
REMARK    2  A    between atoms: C_4  and  C_5 
REMARK    3  A    between atoms: C_5  and  C_6 
ROOT
HETATM    1  C   LIG     1      -0.710  -0.234   0.814  1.00  0.00     0.033 C 
ENDROOT
BRANCH   1   2
HETATM    2  C   LIG     1      -1.476   0.181  -0.458  1.00  0.00     0.152 C 
HETATM    3  C   LIG     1      -2.967   0.349  -0.153  1.00  0.00     0.036 C 
HETATM    4  O   LIG     1      -0.966   1.396  -0.943  1.00  0.00    -0.224 OA
ENDBRANCH   1   2
BRANCH   1   5
HETATM    5  C   LIG     1       0.691  -0.805   0.527  1.00  0.00     0.003 C 
BRANCH   5   6
HETATM    6  C   LIG     1       1.692   0.260   0.056  1.00  0.00     0.000 C 
HETATM    7  C   LIG     1       3.108  -0.306  -0.008  1.00  0.00     0.000 C 
ENDBRANCH   5   6
ENDBRANCH   1   5
TORSDOF 3
