REMARK  0 active torsions:
REMARK  status: ('A' for Active; 'I' for Inactive)
ROOT
HETATM    1  O   LIG     1      -1.984  -2.188   0.581  1.00  0.00    -0.242 OA
HETATM    2  C   LIG     1      -1.349  -1.125   0.342  1.00  0.00     0.371 A 
HETATM    3  N   LIG     1      -0.003  -1.167   0.142  1.00  0.00    -0.195 NA
HETATM    4  C   LIG     1       0.701  -0.031  -0.128  1.00  0.00     0.069 A 
HETATM    5  C   LIG     1       2.189  -0.090  -0.309  1.00  0.00     0.052 C 
HETATM    6  C   LIG     1       0.036   1.199  -0.169  1.00  0.00     0.077 A 
HETATM    7  N   LIG     1      -2.011   0.063   0.287  1.00  0.00    -0.152 NA
HETATM    8  C   LIG     1      -1.343   1.222   0.039  1.00  0.00     0.284 A 
HETATM    9  O   LIG     1      -1.967   2.315  -0.001  1.00  0.00    -0.265 OA
ENDROOT
TORSDOF 0
