REMARK  0 active torsions:
REMARK  status: ('A' for Active; 'I' for Inactive)
ROOT
HETATM    1  C   LIG     1      -2.389  -0.211  -0.022  1.00  0.00     0.285 C 
HETATM    2  N   LIG     1      -0.976  -0.106   0.373  1.00  0.00     0.139 N 
HETATM    3  C   LIG     1      -0.208  -1.228  -0.205  1.00  0.00     0.250 C 
HETATM    4  C   LIG     1       1.251  -1.169   0.260  1.00  0.00     0.035 C 
HETATM    5  C   LIG     1       1.882   0.173  -0.121  1.00  0.00     0.004 C 
HETATM    6  C   LIG     1       1.029   1.337   0.392  1.00  0.00     0.035 C 
HETATM    7  C   LIG     1      -0.422   1.187  -0.078  1.00  0.00     0.250 C 
ENDROOT
TORSDOF 0
