REMARK  3 active torsions:
REMARK  status: ('A' for Active; 'I' for Inactive)
REMARK    1  A    between atoms: C_2  and  C_4 
REMARK    2  A    between atoms: C_4  and  C_5 
REMARK    3  A    between atoms: C_5  and  C_6 
ROOT
HETATM    1  C   LIG     1       0.219  -0.062   0.390  1.00  0.00     0.003 C 
ENDROOT
BRANCH   1   2
HETATM    2  C   LIG     1      -1.226   0.283  -0.036  1.00  0.00     0.000 C 
HETATM    3  C   LIG     1      -1.975   0.940   1.131  1.00  0.00     0.000 C 
HETATM    4  C   LIG     1      -1.996  -0.957  -0.515  1.00  0.00     0.000 C 
ENDBRANCH   1   2
BRANCH   1   5
HETATM    5  C   LIG     1       1.103  -0.485  -0.796  1.00  0.00     0.036 C 
BRANCH   5   6
HETATM    6  C   LIG     1       2.559  -0.688  -0.372  1.00  0.00     0.182 C 
HETATM    7  O   LIG     1       3.126   0.535   0.010  1.00  0.00    -0.221 OA
ENDBRANCH   5   6
ENDBRANCH   1   5
TORSDOF 3
