REMARK  0 active torsions:
REMARK  status: ('A' for Active; 'I' for Inactive)
ROOT
HETATM    1  O   LIG     1       2.151  -0.710   0.325  1.00  0.00    -0.190 OA
HETATM    2  C   LIG     1       0.829  -0.310   0.141  1.00  0.00     0.134 A 
HETATM    3  C   LIG     1       0.529   0.945  -0.403  1.00  0.00     0.048 A 
HETATM    4  C   LIG     1      -0.807   1.315  -0.574  1.00  0.00     0.101 A 
HETATM    5  N   LIG     1      -1.803   0.460  -0.214  1.00  0.00    -0.242 NA
HETATM    6  C   LIG     1      -1.535  -0.763   0.316  1.00  0.00     0.101 A 
HETATM    7  C   LIG     1      -0.211  -1.171   0.503  1.00  0.00     0.048 A 
ENDROOT
TORSDOF 0
