REMARK  3 active torsions:
REMARK  status: ('A' for Active; 'I' for Inactive)
REMARK    1  A    between atoms: C_2  and  C_3 
REMARK    2  A    between atoms: C_3  and  O_4 
REMARK    3  A    between atoms: O_4  and  C_5 
ROOT
HETATM    1  O   LIG     1      -0.084   0.177  -0.283  1.00  0.00    -0.357 OA
ENDROOT
BRANCH   1   2
HETATM    2  C   LIG     1       0.745  -0.854   0.215  1.00  0.00     0.142 C 
BRANCH   2   3
HETATM    3  C   LIG     1       2.096  -0.821  -0.502  1.00  0.00     0.032 C 
HETATM    4  C   LIG     1       2.864   0.467  -0.208  1.00  0.00     0.003 C 
ENDBRANCH   2   3
ENDBRANCH   1   2
BRANCH   1   5
HETATM    5  C   LIG     1      -1.381   0.100   0.284  1.00  0.00     0.116 C 
HETATM    6  C   LIG     1      -2.326  -0.602  -0.695  1.00  0.00     0.032 C 
HETATM    7  C   LIG     1      -1.872   1.520   0.564  1.00  0.00     0.032 C 
ENDBRANCH   1   5
TORSDOF 3
