REMARK  5 active torsions:
REMARK  status: ('A' for Active; 'I' for Inactive)
REMARK    1  A    between atoms: C_2  and  O_3 
REMARK    2  A    between atoms: O_3  and  C_4 
REMARK    3  A    between atoms: C_4  and  C_5 
REMARK    4  A    between atoms: C_5  and  C_6 
REMARK    5  A    between atoms: C_6  and  C_7 
ROOT
HETATM    1  C   LIG     1       0.903   0.162   1.215  1.00  0.00     0.152 C 
ENDROOT
BRANCH   1   2
HETATM    2  O   LIG     1       1.981  -0.673   0.795  1.00  0.00    -0.302 OA
BRANCH   2   3
HETATM    3  C   LIG     1       2.863  -0.332  -0.237  1.00  0.00     0.272 C 
HETATM    4  O   LIG     1       2.787   0.790  -0.808  1.00  0.00    -0.264 OA
HETATM    5  C   LIG     1       3.941  -1.284  -0.625  1.00  0.00     0.106 C 
ENDBRANCH   2   3
ENDBRANCH   1   2
BRANCH   1   6
HETATM    6  C   LIG     1      -0.249   0.099   0.208  1.00  0.00     0.033 C 
BRANCH   6   7
HETATM    7  C   LIG     1      -1.441   0.943   0.682  1.00  0.00     0.003 C 
BRANCH   7   8
HETATM    8  C   LIG     1      -2.570   1.007  -0.358  1.00  0.00     0.000 C 
HETATM    9  C   LIG     1      -3.308  -0.323  -0.512  1.00  0.00     0.000 C 
ENDBRANCH   7   8
ENDBRANCH   6   7
ENDBRANCH   1   6
TORSDOF 5
