REMARK  3 active torsions:
REMARK  status: ('A' for Active; 'I' for Inactive)
REMARK    1  A    between atoms: C_3  and  C_4 
REMARK    2  A    between atoms: C_4  and  C_5 
REMARK    3  A    between atoms: C_5  and  C_6 
ROOT
HETATM    1  C   LIG     1       3.101   1.303   0.724  1.00  0.00    -0.014 C 
HETATM    2  C   LIG     1       2.579   0.350   0.201  1.00  0.00    -0.077 C 
HETATM    3  C   LIG     1       1.942  -0.811  -0.435  1.00  0.00     0.077 C 
ENDROOT
BRANCH   3   4
HETATM    4  C   LIG     1       0.454  -0.558  -0.704  1.00  0.00     0.014 C 
BRANCH   4   5
HETATM    5  C   LIG     1      -0.364  -0.472   0.597  1.00  0.00     0.001 C 
BRANCH   5   6
HETATM    6  C   LIG     1      -1.876  -0.381   0.338  1.00  0.00     0.000 C 
HETATM    7  C   LIG     1      -2.293   0.964  -0.257  1.00  0.00     0.000 C 
ENDBRANCH   5   6
ENDBRANCH   4   5
ENDBRANCH   3   4
TORSDOF 3
