REMARK  0 active torsions:
REMARK  status: ('A' for Active; 'I' for Inactive)
ROOT
HETATM    1  C   LIG     1       1.045   0.924   0.312  1.00  0.00    -0.025 C 
HETATM    2  C   LIG     1      -0.219   1.369   0.344  1.00  0.00    -0.025 C 
HETATM    3  C   LIG     1      -1.391   0.504  -0.042  1.00  0.00     0.051 C 
HETATM    4  C   LIG     1      -1.049  -0.960  -0.138  1.00  0.00    -0.025 C 
HETATM    5  C   LIG     1       0.215  -1.404  -0.153  1.00  0.00    -0.025 C 
HETATM    6  C   LIG     1       1.397  -0.471  -0.134  1.00  0.00     0.051 C 
ENDROOT
TORSDOF 0
