REMARK  3 active torsions:
REMARK  status: ('A' for Active; 'I' for Inactive)
REMARK    1  A    between atoms: C_2  and  C_3 
REMARK    2  A    between atoms: C_3  and  C_4 
REMARK    3  A    between atoms: C_4  and  O_5 
ROOT
HETATM    1  C   LIG     1      -0.269  -0.105   0.826  1.00  0.00     0.032 C 
ENDROOT
BRANCH   1   2
HETATM    2  C   LIG     1      -1.469   0.782   0.463  1.00  0.00     0.003 C 
HETATM    3  C   LIG     1      -2.494   0.062  -0.413  1.00  0.00     0.000 C 
ENDBRANCH   1   2
BRANCH   1   4
HETATM    4  C   LIG     1       0.645  -0.388  -0.374  1.00  0.00     0.142 C 
BRANCH   4   5
HETATM    5  O   LIG     1       1.767  -1.146   0.040  1.00  0.00    -0.352 OA
HETATM    6  C   LIG     1       2.883  -0.306   0.242  1.00  0.00     0.174 C 
ENDBRANCH   4   5
ENDBRANCH   1   4
TORSDOF 3
