REMARK  5 active torsions:
REMARK  status: ('A' for Active; 'I' for Inactive)
REMARK    1  A    between atoms: C_2  and  O_3 
REMARK    2  A    between atoms: O_3  and  C_4 
REMARK    3  A    between atoms: C_4  and  C_5 
REMARK    4  A    between atoms: C_5  and  O_6 
REMARK    5  A    between atoms: O_6  and  C_7 
ROOT
HETATM    1  C   LIG     1       0.684  -1.097   0.447  1.00  0.00     0.174 C 
ENDROOT
BRANCH   1   2
HETATM    2  O   LIG     1       0.993   0.234   0.803  1.00  0.00    -0.352 OA
BRANCH   2   3
HETATM    3  C   LIG     1       2.339   0.336   1.228  1.00  0.00     0.142 C 
HETATM    4  C   LIG     1       3.219   0.817   0.080  1.00  0.00     0.035 C 
ENDBRANCH   2   3
ENDBRANCH   1   2
BRANCH   1   5
HETATM    5  C   LIG     1      -0.723  -1.157  -0.140  1.00  0.00     0.174 C 
BRANCH   5   6
HETATM    6  O   LIG     1      -1.682  -0.820   0.848  1.00  0.00    -0.352 OA
BRANCH   6   7
HETATM    7  C   LIG     1      -2.193   0.485   0.655  1.00  0.00     0.142 C 
HETATM    8  C   LIG     1      -3.414   0.453  -0.258  1.00  0.00     0.035 C 
ENDBRANCH   6   7
ENDBRANCH   5   6
ENDBRANCH   1   5
TORSDOF 5
