REMARK  4 active torsions:
REMARK  status: ('A' for Active; 'I' for Inactive)
REMARK    1  A    between atoms: C_3  and  C_4 
REMARK    2  A    between atoms: C_4  and  C_5 
REMARK    3  A    between atoms: C_5  and  C_6 
REMARK    4  A    between atoms: C_6  and  C_7 
ROOT
HETATM    1  C   LIG     1      -3.880  -0.961  -0.818  1.00  0.00    -0.014 C 
HETATM    2  C   LIG     1      -3.310  -0.412   0.092  1.00  0.00    -0.077 C 
HETATM    3  C   LIG     1      -2.615   0.257   1.200  1.00  0.00     0.077 C 
ENDROOT
BRANCH   3   4
HETATM    4  C   LIG     1      -1.286   0.870   0.741  1.00  0.00     0.014 C 
BRANCH   4   5
HETATM    5  C   LIG     1      -0.242  -0.201   0.390  1.00  0.00     0.001 C 
BRANCH   5   6
HETATM    6  C   LIG     1       1.087   0.442  -0.022  1.00  0.00     0.000 C 
BRANCH   6   7
HETATM    7  C   LIG     1       2.129  -0.626  -0.375  1.00  0.00     0.000 C 
HETATM    8  C   LIG     1       3.453   0.011  -0.786  1.00  0.00     0.000 C 
ENDBRANCH   6   7
ENDBRANCH   5   6
ENDBRANCH   4   5
ENDBRANCH   3   4
TORSDOF 4
