REMARK  5 active torsions:
REMARK  status: ('A' for Active; 'I' for Inactive)
REMARK    1  A    between atoms: C_2  and  C_3 
REMARK    2  A    between atoms: C_3  and  C_4 
REMARK    3  A    between atoms: C_4  and  C_5 
REMARK    4  A    between atoms: C_5  and  C_6 
REMARK    5  A    between atoms: C_6  and  C_7 
ROOT
HETATM    1  C   LIG     1       0.180  -0.245  -0.216  1.00  0.00     0.000 C 
ENDROOT
BRANCH   1   2
HETATM    2  C   LIG     1       1.243   0.837  -0.461  1.00  0.00     0.000 C 
BRANCH   2   3
HETATM    3  C   LIG     1       2.632   0.246  -0.743  1.00  0.00     0.000 C 
HETATM    4  C   LIG     1       3.269  -0.386   0.494  1.00  0.00     0.000 C 
ENDBRANCH   2   3
ENDBRANCH   1   2
BRANCH   1   5
HETATM    5  C   LIG     1      -1.212   0.379  -0.060  1.00  0.00     0.001 C 
BRANCH   5   6
HETATM    6  C   LIG     1      -2.273  -0.701   0.195  1.00  0.00     0.012 C 
BRANCH   6   7
HETATM    7  C   LIG     1      -3.678  -0.108   0.319  1.00  0.00     0.068 C 
HETATM    8 BR   LIG     1      -3.889   0.888   1.973  1.00  0.00    -0.081 Br
ENDBRANCH   6   7
ENDBRANCH   5   6
ENDBRANCH   1   5
TORSDOF 5
