REMARK  5 active torsions:
REMARK  status: ('A' for Active; 'I' for Inactive)
REMARK    1  A    between atoms: C_2  and  C_3 
REMARK    2  A    between atoms: C_3  and  C_4 
REMARK    3  A    between atoms: C_4  and  C_5 
REMARK    4  A    between atoms: C_5  and  C_6 
REMARK    5  A    between atoms: C_6  and  C_7 
ROOT
HETATM    1  C   LIG     1      -0.165   0.344  -0.643  1.00  0.00     0.000 C 
ENDROOT
BRANCH   1   2
HETATM    2  C   LIG     1       1.180  -0.399  -0.703  1.00  0.00     0.000 C 
BRANCH   2   3
HETATM    3  C   LIG     1       2.187   0.112   0.338  1.00  0.00     0.000 C 
HETATM    4  C   LIG     1       3.549  -0.553   0.156  1.00  0.00     0.000 C 
ENDBRANCH   2   3
ENDBRANCH   1   2
BRANCH   1   5
HETATM    5  C   LIG     1      -1.001  -0.047   0.588  1.00  0.00     0.001 C 
BRANCH   5   6
HETATM    6  C   LIG     1      -2.353   0.688   0.641  1.00  0.00     0.018 C 
BRANCH   6   7
HETATM    7  C   LIG     1      -3.384   0.164  -0.366  1.00  0.00     0.095 C 
HETATM    8 CL   LIG     1      -3.889  -1.503   0.022  1.00  0.00    -0.114 Cl
ENDBRANCH   6   7
ENDBRANCH   5   6
ENDBRANCH   1   5
TORSDOF 5
