REMARK  0 active torsions:
REMARK  status: ('A' for Active; 'I' for Inactive)
ROOT
HETATM    1  C   LIG     1       2.186  -1.954   1.214  1.00  0.00     0.004 C 
HETATM    2  C   LIG     1       1.766  -0.571   0.657  1.00  0.00     0.016 C 
HETATM    3  C   LIG     1       2.369  -0.420  -0.750  1.00  0.00    -0.042 C 
HETATM    4  C   LIG     1       1.516  -0.788  -1.955  1.00  0.00     0.022 C 
HETATM    5  C   LIG     1       0.162  -0.031  -1.969  1.00  0.00     0.004 C 
HETATM    6  C   LIG     1      -0.212   0.517  -0.575  1.00  0.00     0.001 C 
HETATM    7  C   LIG     1      -1.674   0.983  -0.388  1.00  0.00     0.007 C 
HETATM    8  C   LIG     1      -2.441   1.677  -1.513  1.00  0.00     0.008 C 
HETATM    9  C   LIG     1      -3.875   1.747  -0.961  1.00  0.00     0.065 C 
HETATM   10  C   LIG     1      -3.909   0.690   0.104  1.00  0.00     0.150 C 
HETATM   11  O   LIG     1      -4.901   0.440   0.772  1.00  0.00    -0.296 OA
HETATM   12  C   LIG     1       0.199  -0.509   0.529  1.00  0.00     0.004 C 
HETATM   13  C   LIG     1      -0.601  -0.295   1.847  1.00  0.00     0.001 C 
HETATM   14  C   LIG     1      -2.147  -0.422   1.647  1.00  0.00     0.007 C 
HETATM   15  C   LIG     1      -2.622  -0.070   0.202  1.00  0.00     0.051 C 
HETATM   16  C   LIG     1      -2.811  -1.344  -0.667  1.00  0.00     0.007 C 
HETATM   17  C   LIG     1       3.595   0.100  -0.934  1.00  0.00     0.029 C 
HETATM   18  C   LIG     1       4.389   0.624   0.189  1.00  0.00     0.172 C 
HETATM   19  C   LIG     1       3.839   0.646   1.585  1.00  0.00     0.070 C 
HETATM   20  C   LIG     1       2.305   0.556   1.588  1.00  0.00     0.012 C 
HETATM   21  O   LIG     1       5.558   1.041  -0.022  1.00  0.00    -0.291 OA
ENDROOT
TORSDOF 0
