REMARK  2 active torsions:
REMARK  status: ('A' for Active; 'I' for Inactive)
REMARK       I    between atoms: C_2  and  N_3 
REMARK    1  A    between atoms: C_2  and  O_5 
REMARK    2  A    between atoms: O_5  and  C_6 
ROOT
HETATM    1  C   LIG     1      -0.018   0.067  -0.482  1.00  0.00     0.105 A 
HETATM    2  C   LIG     1      -1.230   0.114   0.239  1.00  0.00     0.023 A 
HETATM    3  C   LIG     1      -1.260   0.523   1.586  1.00  0.00     0.002 A 
HETATM    4  C   LIG     1      -2.467   0.557   2.288  1.00  0.00     0.000 A 
HETATM    5  C   LIG     1      -3.657   0.184   1.660  1.00  0.00     0.000 A 
HETATM    6  C   LIG     1      -3.648  -0.226   0.325  1.00  0.00     0.000 A 
HETATM    7  C   LIG     1      -2.443  -0.264  -0.394  1.00  0.00     0.002 A 
HETATM    8  C   LIG     1      -2.431  -0.673  -1.735  1.00  0.00     0.000 A 
HETATM    9  C   LIG     1      -1.234  -0.699  -2.449  1.00  0.00     0.002 A 
HETATM   10  C   LIG     1      -0.037  -0.327  -1.834  1.00  0.00     0.025 A 
ENDROOT
BRANCH   1  11
HETATM   11  O   LIG     1       1.176   0.456   0.148  1.00  0.00    -0.258 OA
BRANCH  11  12
HETATM   12  C   LIG     1       2.449  -0.051  -0.143  1.00  0.00     0.388 C 
HETATM   13  O   LIG     1       2.584  -1.122  -0.798  1.00  0.00    -0.236 OA
HETATM   14  N   LIG     1       3.601   0.630   0.361  1.00  0.00    -0.210 NA
HETATM   15  C   LIG     1       4.954   0.147   0.113  1.00  0.00     0.158 C 
ENDBRANCH  11  12
ENDBRANCH   1  11
TORSDOF 2
