REMARK  4 active torsions:
REMARK  status: ('A' for Active; 'I' for Inactive)
REMARK    1  A    between atoms: C_2  and  CA_3 
REMARK    2  A    between atoms: CA_3  and  CB_5 
REMARK    3  A    between atoms: CB_5  and  CG_6 
REMARK    4  A    between atoms: CG_6  and  SD_7 
ROOT
ATOM      1  CA  MET A   1      -1.294  -0.550  -0.664  1.00  0.00     0.388 C 
ATOM      2  N   MET A   1      -2.131  -1.518  -1.377  1.00  0.00     0.628 N 
ENDROOT
BRANCH   1   3
ATOM      3  C   MET A   1      -1.641   0.845  -1.115  1.00  0.00     0.224 C 
ATOM      4  O   MET A   1      -1.873   1.855  -0.184  1.00  0.00    -0.646 OA
ATOM      5  OXT MET A   1      -1.690   1.119  -2.344  1.00  0.00    -0.646 OA
ENDBRANCH   1   3
BRANCH   1   6
ATOM      6  CB  MET A   1       0.207  -0.855  -0.883  1.00  0.00     0.062 C 
BRANCH   6   7
ATOM      7  CG  MET A   1       1.138   0.016  -0.029  1.00  0.00     0.060 C 
BRANCH   7   8
ATOM      8  SD  MET A   1       0.991  -0.403   1.744  1.00  0.00    -0.139 SA
ATOM      9  CE  MET A   1       2.186   0.855   2.293  1.00  0.00     0.069 C 
ENDBRANCH   7   8
ENDBRANCH   6   7
ENDBRANCH   1   6
TORSDOF 4
