REMARK  2 active torsions:
REMARK  status: ('A' for Active; 'I' for Inactive)
REMARK    1  A    between atoms: C_2  and  C_3 
REMARK    2  A    between atoms: C_2  and  O_10 
ROOT
HETATM    1  C   LIG     1       0.509  -0.121  -0.085  1.00  0.00     0.070 C 
HETATM    2  C   LIG     1       0.156  -1.134   0.726  1.00  0.00    -0.021 C 
HETATM    3  C   LIG     1      -1.266  -1.369   1.154  1.00  0.00     0.061 C 
HETATM    4  C   LIG     1      -2.134  -0.127   0.953  1.00  0.00     0.255 C 
HETATM    5  N   LIG     1      -1.890   0.427  -0.390  1.00  0.00     0.144 N 
HETATM    6  C   LIG     1      -2.842   1.512  -0.671  1.00  0.00     0.286 C 
HETATM    7  C   LIG     1      -0.506   0.933  -0.481  1.00  0.00     0.282 C 
ENDROOT
BRANCH   1   8
HETATM    8  C   LIG     1       1.921   0.042  -0.502  1.00  0.00     0.293 C 
HETATM    9  O   LIG     1       2.263   1.052  -1.177  1.00  0.00    -0.259 OA
BRANCH   8  10
HETATM   10  O   LIG     1       2.875  -0.919  -0.149  1.00  0.00    -0.296 OA
HETATM   11  C   LIG     1       4.244  -0.815  -0.521  1.00  0.00     0.185 C 
ENDBRANCH   8  10
ENDBRANCH   1   8
TORSDOF 2
