REMARK  1 active torsions:
REMARK  status: ('A' for Active; 'I' for Inactive)
REMARK    1  A    between atoms: C_2  and  C_5 
ROOT
HETATM    1 CL   LIG     1       1.499  -1.282  -0.774  1.00  0.00    -0.082 Cl
HETATM    2  C   LIG     1       0.702   0.031   0.135  1.00  0.00     0.213 C 
HETATM    3 CL   LIG     1       0.944  -0.234   1.882  1.00  0.00    -0.082 Cl
HETATM    4 CL   LIG     1       1.480   1.571  -0.310  1.00  0.00    -0.082 Cl
ENDROOT
BRANCH   2   5
HETATM    5  C   LIG     1      -0.791   0.100  -0.205  1.00  0.00     0.141 C 
HETATM    6 CL   LIG     1      -1.649  -1.411   0.212  1.00  0.00    -0.110 Cl
ENDBRANCH   2   5
TORSDOF 1
