REMARK  3 active torsions:
REMARK  status: ('A' for Active; 'I' for Inactive)
REMARK    1  A    between atoms: C_2  and  C_3 
REMARK    2  A    between atoms: C_3  and  C_5 
REMARK    3  A    between atoms: C_5  and  C_6 
ROOT
HETATM    1  C   LIG     1      -1.189   0.013   0.094  1.00  0.00     0.033 C 
HETATM    2  C   LIG     1      -1.443  -1.083   1.142  1.00  0.00     0.003 C 
ENDROOT
BRANCH   1   3
HETATM    3  C   LIG     1      -2.307  -0.015  -0.964  1.00  0.00     0.182 C 
HETATM    4  O   LIG     1      -2.174   1.072  -1.838  1.00  0.00    -0.221 OA
ENDBRANCH   1   3
BRANCH   1   5
HETATM    5  C   LIG     1       0.198  -0.147  -0.584  1.00  0.00     0.003 C 
BRANCH   5   6
HETATM    6  C   LIG     1       1.415  -0.079   0.372  1.00  0.00     0.000 C 
HETATM    7  C   LIG     1       2.709  -0.313  -0.418  1.00  0.00     0.000 C 
HETATM    8  C   LIG     1       1.495   1.263   1.115  1.00  0.00     0.000 C 
ENDBRANCH   5   6
ENDBRANCH   1   5
TORSDOF 3
