REMARK  0 active torsions:
REMARK  status: ('A' for Active; 'I' for Inactive)
REMARK       I    between atoms: C_2  and  N_3 
REMARK       I    between atoms: C_2  and  N_6 
ROOT
HETATM    1  O   LIG     1       0.563   2.026   0.608  1.00  0.00    -0.247 OA
HETATM    2  C   LIG     1       0.235   0.847   0.304  1.00  0.00     0.324 C 
HETATM    3  N   LIG     1      -1.160   0.501   0.224  1.00  0.00    -0.299 N 
HETATM    4  C   LIG     1      -2.112   1.144   1.130  1.00  0.00     0.130 C 
HETATM    5  C   LIG     1      -1.645  -0.472  -0.757  1.00  0.00     0.130 C 
HETATM    6  N   LIG     1       1.264  -0.127   0.045  1.00  0.00    -0.299 N 
HETATM    7  C   LIG     1       2.513   0.301  -0.586  1.00  0.00     0.130 C 
HETATM    8  C   LIG     1       1.088  -1.533   0.413  1.00  0.00     0.130 C 
ENDROOT
TORSDOF 0
