REMARK  0 active torsions:
REMARK  status: ('A' for Active; 'I' for Inactive)
ROOT
HETATM    1 CL   LIG     1       1.145   2.866   0.209  1.00  0.00    -0.081 Cl
HETATM    2  C   LIG     1       0.513   1.224   0.090  1.00  0.00     0.080 A 
HETATM    3  C   LIG     1       1.399   0.131   0.050  1.00  0.00     0.069 A 
HETATM    4 CL   LIG     1       3.142   0.362   0.117  1.00  0.00    -0.082 Cl
HETATM    5  C   LIG     1       0.897  -1.171  -0.044  1.00  0.00     0.013 A 
HETATM    6  C   LIG     1      -0.479  -1.393  -0.099  1.00  0.00     0.013 A 
HETATM    7  C   LIG     1      -1.369  -0.315  -0.060  1.00  0.00     0.069 A 
HETATM    8 CL   LIG     1      -3.096  -0.643  -0.132  1.00  0.00    -0.082 Cl
HETATM    9  C   LIG     1      -0.877   1.000   0.034  1.00  0.00     0.080 A 
HETATM   10 CL   LIG     1      -1.999   2.360   0.083  1.00  0.00    -0.081 Cl
ENDROOT
TORSDOF 0
