REMARK  0 active torsions:
REMARK  status: ('A' for Active; 'I' for Inactive)
ROOT
HETATM    1 CL   LIG     1       2.623   1.687   0.096  1.00  0.00    -0.081 Cl
HETATM    2  C   LIG     1       1.141   0.734   0.042  1.00  0.00     0.079 A 
HETATM    3  C   LIG     1      -0.113   1.373   0.020  1.00  0.00     0.070 A 
HETATM    4 CL   LIG     1      -0.244   3.127   0.046  1.00  0.00    -0.081 Cl
HETATM    5  C   LIG     1      -1.286   0.611  -0.023  1.00  0.00     0.024 A 
HETATM    6  C   LIG     1      -1.219  -0.784  -0.045  1.00  0.00     0.059 A 
HETATM    7 CL   LIG     1      -2.694  -1.733  -0.099  1.00  0.00    -0.082 Cl
HETATM    8  C   LIG     1       0.023  -1.424  -0.023  1.00  0.00     0.024 A 
HETATM    9  C   LIG     1       1.203  -0.672   0.020  1.00  0.00     0.070 A 
HETATM   10 CL   LIG     1       2.745  -1.519   0.046  1.00  0.00    -0.081 Cl
ENDROOT
TORSDOF 0
