REMARK  0 active torsions:
REMARK  status: ('A' for Active; 'I' for Inactive)
ROOT
HETATM    1  N   LIG     1       1.518  -0.957  -0.833  1.00  0.00    -0.219 NA
HETATM    2  C   LIG     1       0.218  -0.735  -1.157  1.00  0.00     0.101 A 
HETATM    3  C   LIG     1      -0.625  -0.055  -0.266  1.00  0.00     0.041 A 
HETATM    4  C   LIG     1      -0.076   0.381   0.957  1.00  0.00     0.212 A 
HETATM    5  N   LIG     1       1.232   0.133   1.231  1.00  0.00    -0.195 NA
HETATM    6  O   LIG     1      -0.838   1.065   1.905  1.00  0.00    -0.169 OA
HETATM    7  C   LIG     1      -2.064   0.191  -0.623  1.00  0.00     0.036 C 
HETATM    8  C   LIG     1       2.025  -0.528   0.350  1.00  0.00     0.202 A 
HETATM    9  S   LIG     1       3.739  -0.833   0.748  1.00  0.00    -0.009 SA
ENDROOT
TORSDOF 0
