REMARK  5 active torsions:
REMARK  status: ('A' for Active; 'I' for Inactive)
REMARK    1  A    between atoms: C_2  and  O_3 
REMARK    2  A    between atoms: O_3  and  C_4 
REMARK    3  A    between atoms: C_4  and  C_5 
REMARK    4  A    between atoms: C_5  and  C_6 
REMARK    5  A    between atoms: C_6  and  C_7 
ROOT
HETATM    1  C   LIG     1       0.992  -0.151   0.729  1.00  0.00     0.153 C 
ENDROOT
BRANCH   1   2
HETATM    2  O   LIG     1       2.387  -0.128   0.428  1.00  0.00    -0.287 OA
BRANCH   2   3
HETATM    3  C   LIG     1       2.970   0.796  -0.447  1.00  0.00     0.373 C 
HETATM    4  N   LIG     1       4.366   0.716  -0.723  1.00  0.00    -0.032 NA
HETATM    5  O   LIG     1       2.278   1.701  -0.987  1.00  0.00    -0.242 OA
ENDBRANCH   2   3
ENDBRANCH   1   2
BRANCH   1   6
HETATM    6  C   LIG     1       0.202  -0.752  -0.441  1.00  0.00     0.033 C 
BRANCH   6   7
HETATM    7  C   LIG     1      -1.279  -0.978  -0.102  1.00  0.00     0.003 C 
BRANCH   7   8
HETATM    8  C   LIG     1      -2.064   0.337   0.015  1.00  0.00     0.000 C 
HETATM    9  C   LIG     1      -3.552   0.072   0.228  1.00  0.00     0.000 C 
ENDBRANCH   7   8
ENDBRANCH   6   7
ENDBRANCH   1   6
TORSDOF 5
