REMARK  0 active torsions:
REMARK  status: ('A' for Active; 'I' for Inactive)
ROOT
HETATM    1  C   LIG     1      -0.802  -0.263  -0.048  1.00  0.00     0.109 C 
HETATM    2  C   LIG     1       0.394   0.630  -0.077  1.00  0.00     0.186 C 
HETATM    3  O   LIG     1       1.661   0.118   0.185  1.00  0.00    -0.647 OA
HETATM    4  O   LIG     1       0.262   1.855  -0.339  1.00  0.00    -0.647 OA
ENDROOT
TORSDOF 0
