REMARK  2 active torsions:
REMARK  status: ('A' for Active; 'I' for Inactive)
REMARK    1  A    between atoms: C_19  and  C_20 
REMARK    2  A    between atoms: C_20  and  C_21 
ROOT
HETATM    1  O   LIG     1       6.288  -1.275   0.424  1.00  0.00    -0.291 OA
HETATM    2  C   LIG     1       5.145  -0.821   0.154  1.00  0.00     0.172 C 
HETATM    3  C   LIG     1       4.691  -0.768  -1.275  1.00  0.00     0.070 C 
HETATM    4  C   LIG     1       3.163  -0.643  -1.376  1.00  0.00     0.012 C 
HETATM    5  C   LIG     1       2.585   0.455  -0.431  1.00  0.00     0.016 C 
HETATM    6  C   LIG     1       3.069   1.851  -0.895  1.00  0.00     0.004 C 
HETATM    7  C   LIG     1       3.089   0.227   1.004  1.00  0.00    -0.042 C 
HETATM    8  C   LIG     1       2.164   0.562   2.163  1.00  0.00     0.022 C 
HETATM    9  C   LIG     1       0.802  -0.173   2.054  1.00  0.00     0.004 C 
HETATM   10  C   LIG     1       0.503  -0.639   0.611  1.00  0.00     0.001 C 
HETATM   11  C   LIG     1       1.011   0.425  -0.412  1.00  0.00     0.004 C 
HETATM   12  C   LIG     1       0.304   0.276  -1.786  1.00  0.00     0.000 C 
HETATM   13  C   LIG     1      -1.239   0.471  -1.683  1.00  0.00     0.000 C 
HETATM   14  C   LIG     1      -1.855   0.007  -0.318  1.00  0.00     0.007 C 
HETATM   15  C   LIG     1      -2.073   1.229   0.625  1.00  0.00     0.000 C 
HETATM   16  C   LIG     1      -0.955  -1.072   0.306  1.00  0.00     0.000 C 
HETATM   17  C   LIG     1      -1.800  -1.757   1.375  1.00  0.00     0.000 C 
HETATM   18  C   LIG     1      -3.233  -1.703   0.811  1.00  0.00     0.007 C 
HETATM   19  C   LIG     1      -3.169  -0.810  -0.455  1.00  0.00     0.060 C 
HETATM   20  C   LIG     1       4.288  -0.329   1.244  1.00  0.00     0.029 C 
ENDROOT
BRANCH  19  21
HETATM   21  C   LIG     1      -4.439  -0.031  -0.775  1.00  0.00     0.183 C 
HETATM   22  O   LIG     1      -4.850  -0.046  -1.927  1.00  0.00    -0.293 OA
BRANCH  21  23
HETATM   23  C   LIG     1      -5.251   0.720   0.254  1.00  0.00     0.246 C 
HETATM   24  O   LIG     1      -5.412   2.057  -0.137  1.00  0.00    -0.212 OA
ENDBRANCH  21  23
ENDBRANCH  19  21
TORSDOF 2
