REMARK  0 active torsions:
REMARK  status: ('A' for Active; 'I' for Inactive)
ROOT
HETATM    1  O   LIG     1      -1.236   2.386  -0.775  1.00  0.00    -0.218 OA
HETATM    2  C   LIG     1      -0.586   1.142  -0.681  1.00  0.00     0.218 C 
HETATM    3  C   LIG     1      -1.468   0.126   0.076  1.00  0.00     0.218 C 
HETATM    4  O   LIG     1      -2.693  -0.017  -0.597  1.00  0.00    -0.218 OA
HETATM    5  C   LIG     1      -0.761  -1.243   0.197  1.00  0.00     0.218 C 
HETATM    6  O   LIG     1      -0.622  -1.843  -1.067  1.00  0.00    -0.218 OA
HETATM    7  C   LIG     1       0.625  -1.086   0.863  1.00  0.00     0.218 C 
HETATM    8  O   LIG     1       1.285  -2.325   0.907  1.00  0.00    -0.218 OA
HETATM    9  C   LIG     1       1.510  -0.062   0.123  1.00  0.00     0.218 C 
HETATM   10  O   LIG     1       1.853  -0.554  -1.150  1.00  0.00    -0.218 OA
HETATM   11  C   LIG     1       0.789   1.300   0.003  1.00  0.00     0.218 C 
HETATM   12  O   LIG     1       1.573   2.202  -0.735  1.00  0.00    -0.218 OA
ENDROOT
TORSDOF 0
