REMARK  1 active torsions:
REMARK  status: ('A' for Active; 'I' for Inactive)
REMARK    1  A    between atoms: C_2  and  C_3 
ROOT
HETATM    1  C   LIG     1       0.231  -0.487  -0.214  1.00  0.00     0.078 A 
HETATM    2  C   LIG     1      -0.951  -1.248  -0.276  1.00  0.00     0.006 A 
HETATM    3  C   LIG     1      -2.196  -0.642  -0.091  1.00  0.00     0.000 A 
HETATM    4  C   LIG     1      -2.278   0.730   0.149  1.00  0.00     0.002 A 
HETATM    5  C   LIG     1      -1.115   1.502   0.194  1.00  0.00     0.028 A 
HETATM    6  C   LIG     1       0.141   0.906   0.003  1.00  0.00     0.135 A 
HETATM    7  O   LIG     1       1.287   1.700   0.001  1.00  0.00    -0.190 OA
ENDROOT
BRANCH   1   8
HETATM    8  C   LIG     1       1.536  -1.163  -0.403  1.00  0.00     0.268 C 
HETATM    9  N   LIG     1       2.692  -0.766   0.337  1.00  0.00    -0.057 NA
HETATM   10  O   LIG     1       1.625  -2.129  -1.208  1.00  0.00    -0.271 OA
ENDBRANCH   1   8
TORSDOF 1
