REMARK  0 active torsions:
REMARK  status: ('A' for Active; 'I' for Inactive)
ROOT
HETATM    1  O   LIG     1       0.623   2.246   0.475  1.00  0.00    -0.265 OA
HETATM    2  C   LIG     1       0.009   1.163   0.272  1.00  0.00     0.281 A 
HETATM    3  C   LIG     1       0.713   0.002  -0.081  1.00  0.00     0.055 A 
HETATM    4  C   LIG     1       2.211   0.008  -0.211  1.00  0.00     0.038 C 
HETATM    5  C   LIG     1      -0.018  -1.175  -0.281  1.00  0.00     0.104 A 
HETATM    6  N   LIG     1      -1.370  -1.170  -0.146  1.00  0.00    -0.190 NA
HETATM    7  C   LIG     1      -2.035  -0.032   0.189  1.00  0.00     0.371 A 
HETATM    8  N   LIG     1      -1.346   1.124   0.397  1.00  0.00    -0.152 NA
HETATM    9  O   LIG     1      -3.289  -0.047   0.309  1.00  0.00    -0.242 OA
ENDROOT
TORSDOF 0
