REMARK  1 active torsions:
REMARK  status: ('A' for Active; 'I' for Inactive)
REMARK    1  A    between atoms: C_2  and  C_3 
ROOT
HETATM    1  C   UNK     1       0.662   0.021   0.232  1.00  0.00     0.155 A 
HETATM    2  N   UNK     1       0.016  -0.898  -0.545  1.00  0.00    -0.184 NA
HETATM    3  C   UNK     1      -1.323  -0.803  -0.778  1.00  0.00     0.371 A 
HETATM    4  O   UNK     1      -1.898  -1.663  -1.499  1.00  0.00    -0.242 OA
HETATM    5  C   UNK     1      -0.074   1.064   0.811  1.00  0.00     0.088 A 
HETATM    6  C   UNK     1      -1.443   1.143   0.558  1.00  0.00     0.285 A 
HETATM    7  N   UNK     1      -2.043   0.214  -0.232  1.00  0.00    -0.152 NA
HETATM    8  O   UNK     1      -2.123   2.077   1.062  1.00  0.00    -0.265 OA
ENDROOT
BRANCH   1   9
HETATM    9  C   UNK     1       2.120  -0.085   0.484  1.00  0.00     0.230 C 
HETATM   10  O   UNK     1       2.622   0.469   1.499  1.00  0.00    -0.643 OA
HETATM   11  O   UNK     1       2.965  -0.772  -0.386  1.00  0.00    -0.643 OA
ENDBRANCH   1   9
TORSDOF 1
