REMARK  1 active torsions:
REMARK  status: ('A' for Active; 'I' for Inactive)
REMARK    1  A    between atoms: C_2  and  C_3 
ROOT
HETATM    1  C   LIG     1       0.634  -0.133   0.294  1.00  0.00     0.064 A 
HETATM    2  C   LIG     1      -0.070   0.814   1.063  1.00  0.00     0.006 A 
HETATM    3  C   LIG     1      -1.382   1.165   0.728  1.00  0.00     0.000 A 
HETATM    4  C   LIG     1      -2.008   0.572  -0.370  1.00  0.00     0.000 A 
HETATM    5  C   LIG     1      -1.325  -0.377  -1.134  1.00  0.00     0.000 A 
HETATM    6  C   LIG     1      -0.012  -0.731  -0.805  1.00  0.00     0.006 A 
ENDROOT
BRANCH   1   7
HETATM    7  C   LIG     1       2.023  -0.499   0.661  1.00  0.00     0.211 C 
HETATM    8  O   LIG     1       2.905  -1.059  -0.263  1.00  0.00    -0.644 OA
HETATM    9  O   LIG     1       2.435  -0.291   1.834  1.00  0.00    -0.644 OA
ENDBRANCH   1   7
TORSDOF 1
