REMARK  0 active torsions:
REMARK  status: ('A' for Active; 'I' for Inactive)
ROOT
HETATM    1  S   LIG     1      -1.541   2.581   0.661  1.00  0.00    -0.056 SA
HETATM    2  C   LIG     1      -1.275   1.019   0.232  1.00  0.00     0.158 A 
HETATM    3  C   LIG     1       0.028   0.506   0.144  1.00  0.00     0.145 A 
HETATM    4  C   LIG     1       0.195  -0.839  -0.228  1.00  0.00     0.184 A 
HETATM    5  N   LIG     1      -0.890  -1.609  -0.492  1.00  0.00    -0.203 NA
HETATM    6  C   LIG     1      -2.145  -1.096  -0.402  1.00  0.00     0.201 A 
HETATM    7  N   LIG     1      -2.333   0.204  -0.044  1.00  0.00    -0.211 NA
HETATM    8  N   LIG     1       1.447  -1.358  -0.320  1.00  0.00    -0.222 NA
HETATM    9  C   LIG     1       2.542  -0.596  -0.058  1.00  0.00     0.121 A 
HETATM   10  C   LIG     1       2.379   0.742   0.313  1.00  0.00     0.120 A 
HETATM   11  N   LIG     1       1.128   1.266   0.406  1.00  0.00    -0.237 NA
ENDROOT
TORSDOF 0
