REMARK  3 active torsions:
REMARK  status: ('A' for Active; 'I' for Inactive)
REMARK    1  A    between atoms: C_2  and  CA_4 
REMARK    2  A    between atoms: CA_4  and  C_6 
REMARK    3  A    between atoms: C_6  and  C_7 
ROOT
HETATM    1  C   LIG     1       0.409   0.401  -0.448  1.00  0.00    -0.018 A 
HETATM    2  C   LIG     1       1.176   0.919   0.605  1.00  0.00     0.004 A 
HETATM    3  C   LIG     1       2.449   0.408   0.872  1.00  0.00     0.056 A 
HETATM    4  I   LIG     1       3.560   1.219   2.479  1.00  0.00    -0.041 I 
HETATM    5  C   LIG     1       2.976  -0.628   0.086  1.00  0.00     0.142 A 
HETATM    6  O   LIG     1       4.250  -1.117   0.378  1.00  0.00    -0.189 OA
HETATM    7  C   LIG     1       2.211  -1.149  -0.978  1.00  0.00     0.056 A 
HETATM    8  I   LIG     1       2.911  -2.710  -2.228  1.00  0.00    -0.041 I 
HETATM    9  C   LIG     1       0.937  -0.632  -1.238  1.00  0.00     0.004 A 
ENDROOT
BRANCH   1  10
HETATM   10  C   LIG     1      -0.969   0.948  -0.732  1.00  0.00     0.077 C 
BRANCH  10  11
HETATM   11  CA  LIG     1      -2.077  -0.065  -0.385  1.00  0.00     0.391 C 
HETATM   12  N   LIG     1      -3.385   0.478  -0.759  1.00  0.00     0.628 N 
BRANCH  11  13
HETATM   13  C   LIG     1      -2.053  -0.443   1.079  1.00  0.00     0.224 C 
HETATM   14  O   LIG     1      -1.895  -1.649   1.406  1.00  0.00    -0.646 OA
HETATM   15  OXT LIG     1      -2.202   0.516   2.078  1.00  0.00    -0.646 OA
ENDBRANCH  11  13
ENDBRANCH  10  11
ENDBRANCH   1  10
TORSDOF 3
