REMARK  0 active torsions:
REMARK  status: ('A' for Active; 'I' for Inactive)
ROOT
HETATM    1  O   LIG     1      -0.125   2.615  -0.064  1.00  0.00    -0.242 OA
HETATM    2  C   LIG     1      -0.059   1.357  -0.033  1.00  0.00     0.371 A 
HETATM    3  N   LIG     1       1.153   0.741   0.028  1.00  0.00    -0.189 NA
HETATM    4  C   LIG     1       1.243  -0.615   0.062  1.00  0.00     0.109 A 
HETATM    5  C   LIG     1       0.086  -1.391   0.035  1.00  0.00     0.083 A 
HETATM    6  N   LIG     1      -1.201   0.615  -0.061  1.00  0.00    -0.152 NA
HETATM    7  C   LIG     1      -1.148  -0.745  -0.028  1.00  0.00     0.285 A 
HETATM    8  O   LIG     1      -2.212  -1.419  -0.054  1.00  0.00    -0.265 OA
ENDROOT
TORSDOF 0
