REMARK  3 active torsions:
REMARK  status: ('A' for Active; 'I' for Inactive)
REMARK    1  A    between atoms: C_2  and  C_12 
REMARK    2  A    between atoms: C_2  and  C_3 
REMARK    3  A    between atoms: C_12  and  C_13 
ROOT
HETATM    1  O   LIG     1       0.551   2.197   0.007  1.00  0.00    -0.223 OA
HETATM    2  C   LIG     1       0.154   0.882  -0.300  1.00  0.00     0.159 C 
ENDROOT
BRANCH   2   3
HETATM    3  C   LIG     1       1.326   0.108  -0.957  1.00  0.00     0.034 C 
BRANCH   3   4
HETATM    4  C   LIG     1       2.631   0.128  -0.124  1.00  0.00     0.021 C 
HETATM    5  C   LIG     1       2.458  -0.608   1.228  1.00  0.00     0.091 C 
HETATM    6  C   LIG     1       3.766  -0.806   1.947  1.00  0.00     0.258 C 
HETATM    7  N   LIG     1       5.014  -0.672   1.259  1.00  0.00    -0.177 NA
HETATM    8  O   LIG     1       3.760  -1.114   3.169  1.00  0.00    -0.270 OA
HETATM    9  C   LIG     1       5.049  -0.465  -0.154  1.00  0.00     0.258 C 
HETATM   10  C   LIG     1       3.776  -0.498  -0.942  1.00  0.00     0.091 C 
HETATM   11  O   LIG     1       6.148  -0.260  -0.734  1.00  0.00    -0.270 OA
ENDBRANCH   3   4
ENDBRANCH   2   3
BRANCH   2  12
HETATM   12  C   LIG     1      -1.116   0.898  -1.200  1.00  0.00     0.088 C 
HETATM   13  C   LIG     1      -2.296   1.652  -0.545  1.00  0.00     0.010 C 
HETATM   14  C   LIG     1      -3.006   0.817   0.542  1.00  0.00     0.001 C 
HETATM   15  C   LIG     1      -4.154   1.621   1.164  1.00  0.00     0.000 C 
HETATM   16  C   LIG     1      -3.540  -0.502  -0.055  1.00  0.00     0.007 C 
HETATM   17  C   LIG     1      -2.436  -1.346  -0.723  1.00  0.00     0.058 C 
HETATM   18  C   LIG     1      -1.608  -2.138   0.297  1.00  0.00     0.008 C 
HETATM   19  C   LIG     1      -1.563  -0.491  -1.617  1.00  0.00     0.152 C 
HETATM   20  O   LIG     1      -1.265  -0.904  -2.728  1.00  0.00    -0.296 OA
ENDBRANCH   2  12
TORSDOF 3
