REMARK  0 active torsions:
REMARK  status: ('A' for Active; 'I' for Inactive)
ROOT
HETATM    1 CL   LIG     1      -1.116  -1.227  -0.518  1.00  0.00    -0.079 Cl
HETATM    2  C   LIG     1      -0.004  -0.003   0.134  1.00  0.00     0.237 C 
HETATM    3 CL   LIG     1      -0.494   1.608  -0.439  1.00  0.00    -0.079 Cl
HETATM    4 CL   LIG     1       1.650  -0.351  -0.419  1.00  0.00    -0.079 Cl
ENDROOT
TORSDOF 0
