REMARK  6 active torsions:
REMARK  status: ('A' for Active; 'I' for Inactive)
REMARK    1  A    between atoms: C_20  and  O_21 
REMARK    2  A    between atoms: O_21  and  C_22 
REMARK    3  A    between atoms: C_25  and  C_27 
REMARK    4  A    between atoms: C_27  and  C_28 
REMARK    5  A    between atoms: C_28  and  O_29 
REMARK    6  A    between atoms: O_29  and  C_30 
ROOT
HETATM    1  O   LIG     1       6.666   1.964  -1.750  1.00  0.00    -0.287 OA
HETATM    2  C   LIG     1       5.575   1.672  -1.189  1.00  0.00     0.195 C 
HETATM    3  C   LIG     1       4.516   2.678  -1.042  1.00  0.00     0.038 C 
HETATM    4  C   LIG     1       3.424   2.415  -0.311  1.00  0.00    -0.017 C 
HETATM    5  C   LIG     1       3.318   1.160   0.561  1.00  0.00     0.064 C 
HETATM    6  C   LIG     1       3.885   1.560   1.946  1.00  0.00     0.011 C 
HETATM    7  C   LIG     1       4.221   0.035   0.000  1.00  0.00    -0.035 C 
HETATM    8  C   LIG     1       3.802  -1.399   0.205  1.00  0.00     0.023 C 
HETATM    9  C   LIG     1       2.414  -1.662  -0.422  1.00  0.00     0.007 C 
HETATM   10  C   LIG     1       1.510  -0.394  -0.470  1.00  0.00     0.034 C 
HETATM   11  C   LIG     1       1.830   0.592   0.709  1.00  0.00     0.168 C 
HETATM   12  F   LIG     1       1.828  -0.145   1.885  1.00  0.00    -0.237 F 
HETATM   13  C   LIG     1       0.679   1.642   0.905  1.00  0.00     0.182 C 
HETATM   14  O   LIG     1       0.577   2.577  -0.145  1.00  0.00    -0.221 OA
HETATM   15  C   LIG     1      -0.716   0.991   1.173  1.00  0.00     0.039 C 
HETATM   16  C   LIG     1      -0.900  -0.470   0.612  1.00  0.00     0.037 C 
HETATM   17  C   LIG     1      -0.548  -1.527   1.730  1.00  0.00     0.003 C 
HETATM   18  C   LIG     1      -0.025  -0.658  -0.641  1.00  0.00     0.008 C 
HETATM   19  C   LIG     1      -0.528  -1.948  -1.283  1.00  0.00     0.033 C 
HETATM   20  C   LIG     1      -2.043  -1.996  -0.955  1.00  0.00     0.159 C 
HETATM   21  C   LIG     1      -2.330  -0.812   0.043  1.00  0.00     0.205 C 
HETATM   22  O   LIG     1      -3.182  -1.222   1.094  1.00  0.00    -0.216 OA
HETATM   23  C   LIG     1       5.324   0.307  -0.723  1.00  0.00     0.034 C 
ENDROOT
BRANCH  21  24
HETATM   24  C   LIG     1      -2.998   0.360  -0.700  1.00  0.00     0.211 C 
HETATM   25  O   LIG     1      -2.681   0.622  -1.853  1.00  0.00    -0.291 OA
BRANCH  24  26
HETATM   26  C   LIG     1      -4.079   1.187  -0.050  1.00  0.00     0.218 C 
BRANCH  26  27
HETATM   27  O   LIG     1      -3.986   2.538  -0.484  1.00  0.00    -0.294 OA
BRANCH  27  28
HETATM   28  C   LIG     1      -4.837   3.543  -0.011  1.00  0.00     0.273 C 
HETATM   29  C   LIG     1      -4.798   4.900  -0.635  1.00  0.00     0.106 C 
HETATM   30  O   LIG     1      -5.655   3.307   0.924  1.00  0.00    -0.264 OA
ENDBRANCH  27  28
ENDBRANCH  26  27
ENDBRANCH  24  26
ENDBRANCH  21  24
BRANCH  20  31
HETATM   31  O   LIG     1      -2.379  -3.255  -0.361  1.00  0.00    -0.301 OA
BRANCH  31  32
HETATM   32  C   LIG     1      -2.327  -4.475  -1.043  1.00  0.00     0.272 C 
HETATM   33  C   LIG     1      -2.532  -5.741  -0.282  1.00  0.00     0.106 C 
HETATM   34  O   LIG     1      -2.154  -4.509  -2.290  1.00  0.00    -0.264 OA
ENDBRANCH  31  32
ENDBRANCH  20  31
TORSDOF 6
