REMARK  1 active torsions:
REMARK  status: ('A' for Active; 'I' for Inactive)
REMARK    1  A    between atoms: C_2  and  C_5 
ROOT
HETATM    1 CL   LIG     1       1.385  -1.265  -1.130  1.00  0.00    -0.079 Cl
HETATM    2  C   LIG     1       0.711   0.149  -0.269  1.00  0.00     0.237 C 
HETATM    3 CL   LIG     1       0.694   1.525  -1.409  1.00  0.00    -0.079 Cl
HETATM    4 CL   LIG     1       1.831   0.559   1.063  1.00  0.00    -0.079 Cl
ENDROOT
BRANCH   2   5
HETATM    5  C   LIG     1      -0.711  -0.149   0.269  1.00  0.00     0.237 C 
HETATM    6 CL   LIG     1      -0.694  -1.525   1.409  1.00  0.00    -0.079 Cl
HETATM    7 CL   LIG     1      -1.385   1.265   1.130  1.00  0.00    -0.079 Cl
HETATM    8 CL   LIG     1      -1.831  -0.559  -1.063  1.00  0.00    -0.079 Cl
ENDBRANCH   2   5
TORSDOF 1
