REMARK  0 active torsions:
REMARK  status: ('A' for Active; 'I' for Inactive)
ROOT
HETATM    1  O   LIG     1       6.059   1.611   0.269  1.00  0.00    -0.291 OA
HETATM    2  C   LIG     1       4.940   1.034   0.258  1.00  0.00     0.172 C 
HETATM    3  C   LIG     1       4.584   0.081   1.364  1.00  0.00     0.070 C 
HETATM    4  C   LIG     1       3.064  -0.106   1.469  1.00  0.00     0.012 C 
HETATM    5  C   LIG     1       2.467  -0.444   0.084  1.00  0.00     0.019 C 
HETATM    6  C   LIG     1       2.828   0.643  -0.929  1.00  0.00    -0.042 C 
HETATM    7  C   LIG     1       1.822   1.013  -2.008  1.00  0.00     0.022 C 
HETATM    8  C   LIG     1       0.413   1.318  -1.432  1.00  0.00     0.004 C 
HETATM    9  C   LIG     1       0.203   0.719  -0.022  1.00  0.00     0.001 C 
HETATM   10  C   LIG     1       0.927  -0.655   0.093  1.00  0.00     0.004 C 
HETATM   11  C   LIG     1       0.363  -1.511   1.252  1.00  0.00     0.000 C 
HETATM   12  C   LIG     1      -1.147  -1.843   1.055  1.00  0.00     0.003 C 
HETATM   13  C   LIG     1      -1.960  -0.723   0.311  1.00  0.00     0.037 C 
HETATM   14  C   LIG     1      -2.105  -1.095  -1.205  1.00  0.00     0.003 C 
HETATM   15  C   LIG     1      -1.258   0.635   0.498  1.00  0.00     0.003 C 
HETATM   16  C   LIG     1      -2.280   1.695   0.102  1.00  0.00     0.004 C 
HETATM   17  C   LIG     1      -3.644   1.073   0.462  1.00  0.00     0.043 C 
HETATM   18  C   LIG     1      -3.374  -0.397   0.909  1.00  0.00     0.180 C 
HETATM   19  C   LIG     1      -4.442  -1.291   0.416  1.00  0.00    -0.049 C 
HETATM   20  C   LIG     1      -5.316  -2.020   0.016  1.00  0.00    -0.012 C 
HETATM   21  O   LIG     1      -3.385  -0.503   2.318  1.00  0.00    -0.213 OA
HETATM   22  C   LIG     1       4.010   1.277  -0.859  1.00  0.00     0.029 C 
ENDROOT
TORSDOF 0
