REMARK  0 active torsions:
REMARK  status: ('A' for Active; 'I' for Inactive)
ROOT
HETATM    1  C   LIG     1       0.432   0.305   0.091  1.00  0.00     0.176 A 
HETATM    2  C   LIG     1       0.304  -0.982  -0.297  1.00  0.00     0.188 A 
HETATM    3  N   LIG     1       1.506  -1.555  -0.474  1.00  0.00    -0.203 NA
HETATM    4  C   LIG     1       2.358  -0.537  -0.170  1.00  0.00     0.201 A 
HETATM    5  N   LIG     1       1.730   0.614   0.179  1.00  0.00    -0.216 NA
HETATM    6  N   LIG     1      -0.906  -1.567  -0.470  1.00  0.00    -0.203 NA
HETATM    7  C   LIG     1      -2.026  -0.815  -0.239  1.00  0.00     0.203 A 
HETATM    8  N   LIG     1      -1.918   0.496   0.156  1.00  0.00    -0.184 NA
HETATM    9  C   LIG     1      -0.694   1.081   0.329  1.00  0.00     0.301 A 
HETATM   10  O   LIG     1      -0.595   2.284   0.691  1.00  0.00    -0.263 OA
ENDROOT
TORSDOF 0
