REMARK  1 active torsions:
REMARK  status: ('A' for Active; 'I' for Inactive)
REMARK    1  A    between atoms: C_19  and  C_21 
ROOT
HETATM    1  O   LIG     1      -5.709   1.717  -1.474  1.00  0.00    -0.291 OA
HETATM    2  C   LIG     1      -4.678   1.082  -1.127  1.00  0.00     0.172 C 
HETATM    3  C   LIG     1      -4.145  -0.002  -2.016  1.00  0.00     0.070 C 
HETATM    4  C   LIG     1      -2.679  -0.328  -1.690  1.00  0.00     0.012 C 
HETATM    5  C   LIG     1      -2.427  -0.508  -0.162  1.00  0.00     0.016 C 
HETATM    6  C   LIG     1      -3.173  -1.768   0.344  1.00  0.00     0.004 C 
HETATM    7  C   LIG     1      -2.971   0.709   0.604  1.00  0.00    -0.042 C 
HETATM    8  C   LIG     1      -2.229   1.181   1.844  1.00  0.00     0.022 C 
HETATM    9  C   LIG     1      -0.737   1.484   1.548  1.00  0.00     0.004 C 
HETATM   10  C   LIG     1      -0.235   0.767   0.273  1.00  0.00     0.001 C 
HETATM   11  C   LIG     1      -0.891  -0.645   0.155  1.00  0.00     0.004 C 
HETATM   12  C   LIG     1      -0.073  -1.573  -0.778  1.00  0.00     0.000 C 
HETATM   13  C   LIG     1       1.374  -1.815  -0.251  1.00  0.00     0.003 C 
HETATM   14  C   LIG     1       1.998  -0.585   0.509  1.00  0.00     0.032 C 
HETATM   15  C   LIG     1       1.852  -0.805   2.054  1.00  0.00     0.003 C 
HETATM   16  C   LIG     1       1.302   0.707   0.056  1.00  0.00     0.003 C 
HETATM   17  C   LIG     1       2.189   1.854   0.526  1.00  0.00     0.003 C 
HETATM   18  C   LIG     1       3.616   1.267   0.535  1.00  0.00     0.038 C 
HETATM   19  C   LIG     1       3.507  -0.248   0.193  1.00  0.00     0.177 C 
HETATM   20  O   LIG     1       4.382  -0.953   1.048  1.00  0.00    -0.218 OA
HETATM   21  C   LIG     1      -4.031   1.402   0.156  1.00  0.00     0.029 C 
ENDROOT
BRANCH  19  22
HETATM   22  C   LIG     1       3.934  -0.519  -1.265  1.00  0.00     0.178 C 
HETATM   23  C   LIG     1       3.600   0.375  -2.433  1.00  0.00     0.075 C 
HETATM   24  O   LIG     1       4.588  -1.524  -1.509  1.00  0.00    -0.293 OA
ENDBRANCH  19  22
TORSDOF 1
