REMARK  1 active torsions:
REMARK  status: ('A' for Active; 'I' for Inactive)
REMARK       I    between atoms: N_2  and  C_5 
REMARK    1  A    between atoms: N_2  and  N_3 
ROOT
HETATM    1  C   LIG     1       0.544  -1.377  -0.271  1.00  0.00     0.161 C 
HETATM    2  N   LIG     1       0.672   0.073  -0.151  1.00  0.00    -0.179 N 
HETATM    3  C   LIG     1      -0.357   0.864   0.476  1.00  0.00     0.353 C 
HETATM    4  N   LIG     1      -1.732   0.487   0.381  1.00  0.00    -0.038 NA
HETATM    5  O   LIG     1      -0.050   1.909   1.111  1.00  0.00    -0.249 OA
ENDROOT
BRANCH   2   6
HETATM    6  N   LIG     1       1.851   0.666  -0.637  1.00  0.00    -0.007 NA
HETATM    7  O   LIG     1       2.010   1.905  -0.643  1.00  0.00    -0.041 OA
ENDBRANCH   2   6
TORSDOF 1
