REMARK  0 active torsions:
REMARK  status: ('A' for Active; 'I' for Inactive)
ROOT
HETATM    1  C   LIG     1      -0.511  -2.272  -0.226  1.00  0.00     0.000 C 
HETATM    2  C   LIG     1      -0.358  -0.753  -0.416  1.00  0.00     0.000 C 
HETATM    3  C   LIG     1      -1.688  -0.044  -0.040  1.00  0.00     0.000 C 
HETATM    4  C   LIG     1      -1.510   1.424   0.394  1.00  0.00     0.000 C 
HETATM    5  C   LIG     1      -0.305   2.070  -0.288  1.00  0.00     0.000 C 
HETATM    6  C   LIG     1       1.008   1.353   0.079  1.00  0.00     0.000 C 
HETATM    7  C   LIG     1       0.832  -0.160   0.388  1.00  0.00     0.000 C 
HETATM    8  C   LIG     1       2.157  -0.896   0.130  1.00  0.00     0.000 C 
ENDROOT
TORSDOF 0
