REMARK  5 active torsions:
REMARK  status: ('A' for Active; 'I' for Inactive)
REMARK    1  A    between atoms: C_5  and  O_6 
REMARK    2  A    between atoms: O_6  and  C_7 
REMARK    3  A    between atoms: C_11  and  C_12 
REMARK    4  A    between atoms: C_12  and  CA_13 
REMARK    5  A    between atoms: CA_13  and  C_15 
ROOT
HETATM    1  C   LIG     1       0.677  -0.408   0.733  1.00  0.00     0.111 A 
HETATM    2  C   LIG     1       0.147  -1.012  -0.422  1.00  0.00     0.053 A 
HETATM    3  I   LIG     1       1.111  -2.645  -1.365  1.00  0.00    -0.041 I 
HETATM    4  C   LIG     1      -1.068  -0.562  -0.950  1.00  0.00     0.004 A 
HETATM    5  C   LIG     1      -1.766   0.488  -0.335  1.00  0.00    -0.018 A 
HETATM    6  C   LIG     1      -1.247   1.069   0.832  1.00  0.00     0.004 A 
HETATM    7  C   LIG     1      -0.033   0.623   1.365  1.00  0.00     0.053 A 
HETATM    8  I   LIG     1       0.720   1.540   3.114  1.00  0.00    -0.041 I 
ENDROOT
BRANCH   1   9
HETATM    9  O   LIG     1       1.895  -0.835   1.273  1.00  0.00    -0.306 OA
BRANCH   9  10
HETATM   10  C   LIG     1       3.143  -0.613   0.673  1.00  0.00     0.101 A 
HETATM   11  C   LIG     1       4.264  -1.257   1.206  1.00  0.00     0.027 A 
HETATM   12  C   LIG     1       5.526  -1.064   0.639  1.00  0.00     0.030 A 
HETATM   13  C   LIG     1       5.687  -0.221  -0.465  1.00  0.00     0.136 A 
HETATM   14  O   LIG     1       6.966  -0.061  -1.000  1.00  0.00    -0.190 OA
HETATM   15  C   LIG     1       4.565   0.439  -1.005  1.00  0.00     0.058 A 
HETATM   16  C   LIG     1       3.303   0.243  -0.433  1.00  0.00     0.033 A 
HETATM   17  I   LIG     1       4.701   1.740  -2.672  1.00  0.00    -0.041 I 
ENDBRANCH   9  10
ENDBRANCH   1   9
BRANCH   5  18
HETATM   18  C   LIG     1      -3.090   0.946  -0.890  1.00  0.00     0.077 C 
BRANCH  18  19
HETATM   19  CA  LIG     1      -4.245   0.059  -0.390  1.00  0.00     0.391 C 
HETATM   20  N   LIG     1      -4.372   0.153   1.067  1.00  0.00     0.628 N 
BRANCH  19  21
HETATM   21  C   LIG     1      -5.538   0.447  -1.064  1.00  0.00     0.224 C 
HETATM   22  O   LIG     1      -6.224  -0.463  -1.864  1.00  0.00    -0.646 OA
HETATM   23  OXT LIG     1      -6.010   1.605  -0.908  1.00  0.00    -0.646 OA
ENDBRANCH  19  21
ENDBRANCH  18  19
ENDBRANCH   5  18
TORSDOF 5
