REMARK  7 active torsions:
REMARK  status: ('A' for Active; 'I' for Inactive)
REMARK    1  A    between atoms: C_2  and  C_3 
REMARK    2  A    between atoms: C_3  and  N_4 
REMARK    3  A    between atoms: N_9  and  C_10 
REMARK    4  A    between atoms: C_10  and  C_11 
REMARK    5  A    between atoms: C_11  and  C_12 
REMARK    6  A    between atoms: C_12  and  N_13 
REMARK    7  A    between atoms: C_18  and  C_19 
ROOT
HETATM    1  N   LIG     1      -2.492  -0.854   0.016  1.00  0.00    -0.327 N 
HETATM    2  C   LIG     1      -2.921   0.520  -0.119  1.00  0.00     0.066 A 
HETATM    3  C   LIG     1      -4.120   0.926   0.493  1.00  0.00     0.045 A 
HETATM    4  C   LIG     1      -4.649   2.193   0.236  1.00  0.00     0.008 A 
HETATM    5  C   LIG     1      -3.964   3.082  -0.594  1.00  0.00     0.004 A 
HETATM    6  C   LIG     1      -2.735   2.716  -1.170  1.00  0.00     0.073 A 
HETATM    7  C   LIG     1      -2.237   1.419  -0.955  1.00  0.00     0.022 A 
HETATM    8  S   LIG     1      -4.920  -0.162   1.676  1.00  0.00    -0.084 SA
HETATM    9  C   LIG     1      -4.751  -1.611   0.629  1.00  0.00     0.045 A 
HETATM   10  C   LIG     1      -3.515  -1.873   0.010  1.00  0.00     0.066 A 
HETATM   11  C   LIG     1      -3.364  -3.047  -0.749  1.00  0.00     0.018 A 
HETATM   12  C   LIG     1      -4.428  -3.946  -0.875  1.00  0.00     0.002 A 
HETATM   13  C   LIG     1      -5.656  -3.670  -0.268  1.00  0.00     0.001 A 
HETATM   14  C   LIG     1      -5.821  -2.500   0.478  1.00  0.00     0.008 A 
ENDROOT
BRANCH   1  15
HETATM   15  C   LIG     1      -1.067  -1.207   0.127  1.00  0.00     0.108 C 
BRANCH  15  16
HETATM   16  C   LIG     1      -0.428  -0.502   1.334  1.00  0.00     0.060 C 
BRANCH  16  17
HETATM   17  C   LIG     1       1.044  -0.906   1.560  1.00  0.00     0.252 C 
BRANCH  17  18
HETATM   18  N   LIG     1       1.976   0.094   0.989  1.00  0.00     0.141 N 
HETATM   19  C   LIG     1       3.322   0.026   1.617  1.00  0.00     0.285 C 
HETATM   20  C   LIG     1       4.301  -0.856   0.823  1.00  0.00     0.286 C 
HETATM   21  N   LIG     1       4.408  -0.454  -0.602  1.00  0.00     0.144 N 
HETATM   22  C   LIG     1       3.361   0.479  -1.059  1.00  0.00     0.286 C 
HETATM   23  C   LIG     1       2.007   0.043  -0.495  1.00  0.00     0.285 C 
BRANCH  21  24
HETATM   24  C   LIG     1       5.774  -0.084  -1.033  1.00  0.00     0.286 C 
BRANCH  24  25
HETATM   25  C   LIG     1       6.290   1.236  -0.430  1.00  0.00     0.218 C 
HETATM   26  O   LIG     1       5.866   2.324  -1.206  1.00  0.00    -0.218 OA
ENDBRANCH  24  25
ENDBRANCH  21  24
ENDBRANCH  17  18
ENDBRANCH  16  17
ENDBRANCH  15  16
ENDBRANCH   1  15
BRANCH   6  27
HETATM   27  C   LIG     1      -2.020   3.662  -2.102  1.00  0.00     0.419 C 
HETATM   28  F   LIG     1      -0.656   3.429  -2.083  1.00  0.00    -0.166 F 
HETATM   29  F   LIG     1      -2.239   4.976  -1.724  1.00  0.00    -0.166 F 
HETATM   30  F   LIG     1      -2.491   3.478  -3.389  1.00  0.00    -0.166 F 
ENDBRANCH   6  27
TORSDOF 7
