REMARK  2 active torsions:
REMARK  status: ('A' for Active; 'I' for Inactive)
REMARK    1  A    between atoms: N_10  and  C1*_11 
REMARK    2  A    between atoms: C4*_13  and  C5*_14 
ROOT
HETATM    1  N   LIG     1       5.283  -0.371   0.518  1.00  0.00    -0.080 NA
HETATM    2  C   LIG     1       4.063  -0.960   0.065  1.00  0.00     0.155 A 
HETATM    3  N   LIG     1       4.034  -2.264  -0.339  1.00  0.00    -0.210 NA
HETATM    4  C   LIG     1       2.875  -2.854  -0.771  1.00  0.00     0.201 A 
HETATM    5  N   LIG     1       1.709  -2.145  -0.808  1.00  0.00    -0.207 NA
HETATM    6  C   LIG     1       1.730  -0.848  -0.414  1.00  0.00     0.150 A 
HETATM    7  C   LIG     1       2.870  -0.242   0.022  1.00  0.00     0.067 A 
HETATM    8  C   LIG     1       2.540   1.052   0.373  1.00  0.00     0.024 A 
HETATM    9  C   LIG     1       1.173   1.159   0.124  1.00  0.00     0.079 A 
HETATM   10  N   LIG     1       0.683  -0.005  -0.372  1.00  0.00    -0.287 N 
ENDROOT
BRANCH  10  11
HETATM   11  C1* LIG     1      -0.717  -0.326  -0.676  1.00  0.00     0.240 C 
HETATM   12  C2* LIG     1      -1.446  -0.799   0.580  1.00  0.00     0.234 C 
HETATM   13  C3* LIG     1      -2.175   0.442   1.044  1.00  0.00     0.216 C 
HETATM   14  O2* LIG     1      -2.327  -1.862   0.295  1.00  0.00    -0.216 OA
HETATM   15  C4* LIG     1      -2.264   1.312  -0.221  1.00  0.00     0.183 C 
HETATM   16  O3* LIG     1      -3.432   0.144   1.601  1.00  0.00    -0.218 OA
HETATM   17  O4* LIG     1      -1.370   0.813  -1.196  1.00  0.00    -0.331 OA
BRANCH  15  18
HETATM   18  C5* LIG     1      -3.672   1.405  -0.838  1.00  0.00     0.214 C 
HETATM   19  O5* LIG     1      -4.544   2.109   0.005  1.00  0.00    -0.218 OA
ENDBRANCH  15  18
ENDBRANCH  10  11
TORSDOF 2
