REMARK  1 active torsions:
REMARK  status: ('A' for Active; 'I' for Inactive)
REMARK    1  A    between atoms: C_7  and  C_8 
ROOT
HETATM    1  O   LIG     1       0.700   2.350   0.195  1.00  0.00    -0.190 OA
HETATM    2  C   LIG     1      -0.035   1.170   0.056  1.00  0.00     0.137 A 
HETATM    3  C   LIG     1      -1.430   1.253   0.147  1.00  0.00     0.028 A 
HETATM    4  C   LIG     1      -2.216   0.101   0.075  1.00  0.00     0.002 A 
HETATM    5  C   LIG     1      -1.613  -1.145  -0.092  1.00  0.00     0.000 A 
HETATM    6  C   LIG     1      -0.224  -1.242  -0.201  1.00  0.00     0.008 A 
HETATM    7  C   LIG     1       0.582  -0.091  -0.142  1.00  0.00     0.090 A 
ENDROOT
BRANCH   7   8
HETATM    8  C   LIG     1       2.043  -0.235  -0.327  1.00  0.00     0.213 C 
HETATM    9  O   LIG     1       2.736  -1.293   0.257  1.00  0.00    -0.644 OA
HETATM   10  O   LIG     1       2.673   0.579  -1.052  1.00  0.00    -0.644 OA
ENDBRANCH   7   8
TORSDOF 1
