REMARK  2 active torsions:
REMARK  status: ('A' for Active; 'I' for Inactive)
REMARK    1  A    between atoms: C_2  and  C_4 
REMARK    2  A    between atoms: C_4  and  C_5 
ROOT
HETATM    1  C   LIG     1      -1.857  -1.124   0.269  1.00  0.00     0.000 C 
HETATM    2  C   LIG     1      -0.612  -0.527  -0.399  1.00  0.00     0.004 C 
HETATM    3  C   LIG     1      -0.966   0.806  -1.075  1.00  0.00     0.000 C 
ENDROOT
BRANCH   2   4
HETATM    4  C   LIG     1       0.516  -0.351   0.637  1.00  0.00     0.026 C 
BRANCH   4   5
HETATM    5  C   LIG     1       1.820   0.013  -0.024  1.00  0.00    -0.026 C 
HETATM    6  C   LIG     1       2.456   1.157   0.249  1.00  0.00    -0.004 C 
ENDBRANCH   4   5
ENDBRANCH   2   4
TORSDOF 2
