REMARK  7 active torsions:
REMARK  status: ('A' for Active; 'I' for Inactive)
REMARK    1  A    between atoms: C_2  and  C_3 
REMARK    2  A    between atoms: C_3  and  C_4 
REMARK    3  A    between atoms: C_4  and  C_5 
REMARK    4  A    between atoms: C_5  and  C_6 
REMARK    5  A    between atoms: C_6  and  C_7 
REMARK    6  A    between atoms: C_7  and  C_8 
REMARK    7  A    between atoms: C_8  and  C_9 
ROOT
HETATM    1  C   LIG     1      -0.390  -0.393  -0.307  1.00  0.00     0.000 C 
ENDROOT
BRANCH   1   2
HETATM    2  C   LIG     1      -1.684  -0.021   0.425  1.00  0.00     0.008 C 
BRANCH   2   3
HETATM    3  C   LIG     1      -2.602   0.819  -0.470  1.00  0.00     0.065 C 
BRANCH   3   4
HETATM    4  C   LIG     1      -3.877   1.166   0.247  1.00  0.00     0.151 C 
HETATM    5  C   LIG     1      -5.189   0.619  -0.229  1.00  0.00     0.072 C 
HETATM    6  O   LIG     1      -3.845   1.907   1.218  1.00  0.00    -0.296 OA
ENDBRANCH   3   4
ENDBRANCH   2   3
ENDBRANCH   1   2
BRANCH   1   7
HETATM    7  C   LIG     1       0.538  -1.217   0.598  1.00  0.00     0.000 C 
BRANCH   7   8
HETATM    8  C   LIG     1       1.766  -1.773  -0.146  1.00  0.00     0.000 C 
BRANCH   8   9
HETATM    9  C   LIG     1       2.704  -0.706  -0.739  1.00  0.00     0.000 C 
BRANCH   9  10
HETATM   10  C   LIG     1       3.319   0.211   0.328  1.00  0.00     0.000 C 
HETATM   11  C   LIG     1       4.377   1.128  -0.278  1.00  0.00     0.000 C 
ENDBRANCH   9  10
ENDBRANCH   8   9
ENDBRANCH   7   8
ENDBRANCH   1   7
TORSDOF 7
