REMARK  2 active torsions:
REMARK  status: ('A' for Active; 'I' for Inactive)
REMARK    1  A    between atoms: C_3  and  C_4 
REMARK    2  A    between atoms: C_4  and  C_5 
ROOT
HETATM    1  C   LIG     1       3.567   0.522  -0.521  1.00  0.00    -0.014 C 
HETATM    2  C   LIG     1       2.523  -0.010  -0.238  1.00  0.00    -0.077 C 
HETATM    3  C   LIG     1       1.252  -0.658   0.107  1.00  0.00     0.077 C 
ENDROOT
BRANCH   3   4
HETATM    4  C   LIG     1       0.072   0.217  -0.323  1.00  0.00     0.014 C 
BRANCH   4   5
HETATM    5  C   LIG     1      -1.262  -0.449   0.032  1.00  0.00     0.001 C 
HETATM    6  C   LIG     1      -2.442   0.419  -0.394  1.00  0.00     0.000 C 
ENDBRANCH   4   5
ENDBRANCH   3   4
TORSDOF 2
