REMARK  0 active torsions:
REMARK  status: ('A' for Active; 'I' for Inactive)
ROOT
HETATM    1  O   LIG     1       0.604   2.291   0.032  1.00  0.00    -0.267 OA
HETATM    2  C   LIG     1       0.001   1.183   0.001  1.00  0.00     0.261 A 
HETATM    3  C   LIG     1      -1.396   1.170  -0.070  1.00  0.00     0.061 A 
HETATM    4  C   LIG     1      -2.071  -0.049  -0.105  1.00  0.00     0.006 A 
HETATM    5  C   LIG     1      -1.350  -1.239  -0.069  1.00  0.00     0.019 A 
HETATM    6  C   LIG     1       0.044  -1.195   0.002  1.00  0.00     0.079 A 
HETATM    7  N   LIG     1       0.704   0.004   0.036  1.00  0.00    -0.292 N 
HETATM    8  C   LIG     1       2.170   0.025   0.110  1.00  0.00     0.134 C 
ENDROOT
TORSDOF 0
