REMARK  0 active torsions:
REMARK  status: ('A' for Active; 'I' for Inactive)
ROOT
HETATM    1 BR   LIG     1       2.768  -1.658  -0.009  1.00  0.00    -0.048 Br
HETATM    2  C   LIG     1       1.121  -0.680  -0.004  1.00  0.00     0.045 A 
HETATM    3  C   LIG     1      -0.085  -1.392  -0.028  1.00  0.00     0.008 A 
HETATM    4  C   LIG     1      -1.306  -0.710  -0.025  1.00  0.00     0.001 A 
HETATM    5  C   LIG     1      -1.326   0.687   0.002  1.00  0.00     0.001 A 
HETATM    6  C   LIG     1      -0.126   1.403   0.026  1.00  0.00     0.012 A 
HETATM    7  C   LIG     1       1.100   0.726   0.023  1.00  0.00     0.064 A 
HETATM    8 CL   LIG     1       2.588   1.662   0.054  1.00  0.00    -0.082 Cl
ENDROOT
TORSDOF 0
