REMARK  1 active torsions:
REMARK  status: ('A' for Active; 'I' for Inactive)
REMARK    1  A    between atoms: S_2  and  C_3 
ROOT
HETATM    1  C   LIG     1       0.738  -0.668  -0.769  1.00  0.00     0.129 A 
HETATM    2  C   LIG     1      -0.400   0.020  -0.333  1.00  0.00     0.141 A 
HETATM    3  N   LIG     1      -0.538   1.363  -0.496  1.00  0.00    -0.237 NA
HETATM    4  C   LIG     1      -1.652   2.008  -0.060  1.00  0.00     0.120 A 
HETATM    5  C   LIG     1      -2.672   1.282   0.564  1.00  0.00     0.121 A 
HETATM    6  N   LIG     1      -2.537  -0.062   0.728  1.00  0.00    -0.222 NA
HETATM    7  C   LIG     1      -1.424  -0.710   0.294  1.00  0.00     0.184 A 
HETATM    8  N   LIG     1      -1.298  -2.051   0.462  1.00  0.00    -0.203 NA
HETATM    9  C   LIG     1      -0.185  -2.701   0.028  1.00  0.00     0.201 A 
HETATM   10  N   LIG     1       0.818  -2.012  -0.581  1.00  0.00    -0.216 NA
ENDROOT
BRANCH   1  11
HETATM   11  S   LIG     1       2.091   0.188  -1.580  1.00  0.00    -0.092 SA
HETATM   12  C   LIG     1       2.976   0.511  -0.023  1.00  0.00     0.076 C 
ENDBRANCH   1  11
TORSDOF 1
