REMARK  3 active torsions:
REMARK  status: ('A' for Active; 'I' for Inactive)
REMARK       I    between atoms: N_2  and  C_3 
REMARK    1  A    between atoms: C_3  and  O_4 
REMARK    2  A    between atoms: O_4  and  C_5 
REMARK    3  A    between atoms: C_6  and  C_7 
ROOT
HETATM    1  C   LIG     1       0.429   0.904  -0.008  1.00  0.00     0.105 A 
HETATM    2  C   LIG     1      -0.898   0.603   0.375  1.00  0.00     0.057 A 
HETATM    3  C   LIG     1      -1.632   1.545   1.119  1.00  0.00     0.003 A 
HETATM    4  C   LIG     1      -1.069   2.776   1.459  1.00  0.00    -0.000 A 
HETATM    5  C   LIG     1       0.230   3.084   1.059  1.00  0.00     0.002 A 
HETATM    6  C   LIG     1       0.976   2.158   0.326  1.00  0.00     0.025 A 
ENDROOT
BRANCH   1   7
HETATM    7  O   LIG     1       1.164  -0.035  -0.751  1.00  0.00    -0.258 OA
BRANCH   7   8
HETATM    8  C   LIG     1       2.554  -0.200  -0.702  1.00  0.00     0.388 C 
HETATM    9  N   LIG     1       3.197  -0.985  -1.710  1.00  0.00    -0.210 NA
HETATM   10  C   LIG     1       4.636  -1.214  -1.708  1.00  0.00     0.158 C 
HETATM   11  O   LIG     1       3.230   0.293   0.243  1.00  0.00    -0.236 OA
ENDBRANCH   7   8
ENDBRANCH   1   7
BRANCH   2  12
HETATM   12  C   LIG     1      -1.540  -0.721   0.033  1.00  0.00     0.262 C 
HETATM   13  O   LIG     1      -2.731  -0.494  -0.686  1.00  0.00    -0.325 OA
HETATM   14  C   LIG     1      -3.707  -1.272  -0.068  1.00  0.00     0.177 C 
HETATM   15  C   LIG     1      -3.022  -2.050   1.018  1.00  0.00     0.177 C 
HETATM   16  O   LIG     1      -1.792  -1.434   1.220  1.00  0.00    -0.325 OA
ENDBRANCH   2  12
TORSDOF 3
