REMARK  3 active torsions:
REMARK  status: ('A' for Active; 'I' for Inactive)
REMARK    1  A    between atoms: CG_2  and  CB_3 
REMARK    2  A    between atoms: CB_3  and  CA_4 
REMARK    3  A    between atoms: CA_4  and  C_6 
ROOT
ATOM      1  CA  ASN A   1      -0.891  -0.848  -0.177  1.00  0.00     0.396 C 
ATOM      2  N   ASN A   1      -0.940  -1.300   1.216  1.00  0.00     0.628 N 
ENDROOT
BRANCH   1   3
ATOM      3  CB  ASN A   1       0.551  -0.784  -0.730  1.00  0.00     0.135 C 
BRANCH   3   4
ATOM      4  CG  ASN A   1       1.436   0.211  -0.032  1.00  0.00     0.246 C 
ATOM      5  ND2 ASN A   1       1.565   1.542  -0.532  1.00  0.00    -0.061 NA
ATOM      6  OD1 ASN A   1       2.067  -0.130   1.004  1.00  0.00    -0.276 OA
ENDBRANCH   3   4
ENDBRANCH   1   3
BRANCH   1   7
ATOM      7  C   ASN A   1      -1.638   0.454  -0.343  1.00  0.00     0.224 C 
ATOM      8  O   ASN A   1      -1.372   1.561   0.460  1.00  0.00    -0.646 OA
ATOM      9  OXT ASN A   1      -2.537   0.543  -1.221  1.00  0.00    -0.646 OA
ENDBRANCH   1   7
TORSDOF 3
