REMARK  2 active torsions:
REMARK  status: ('A' for Active; 'I' for Inactive)
REMARK    1  A    between atoms: C_2  and  C_10 
REMARK    2  A    between atoms: C_2  and  C_3 
ROOT
HETATM    1  C   LIG     1      -0.003  -0.310  -0.179  1.00  0.00     0.035 A 
HETATM    2  C   LIG     1       0.439   0.670   0.732  1.00  0.00     0.004 A 
HETATM    3  C   LIG     1       1.804   0.927   0.895  1.00  0.00     0.014 A 
HETATM    4  C   LIG     1       2.752   0.211   0.154  1.00  0.00     0.070 A 
HETATM    5  N   LIG     1       4.147   0.475   0.322  1.00  0.00    -0.101 NA
HETATM    6  C   LIG     1       2.323  -0.766  -0.752  1.00  0.00     0.014 A 
HETATM    7  C   LIG     1       0.960  -1.026  -0.918  1.00  0.00     0.004 A 
ENDROOT
BRANCH   1   8
HETATM    8  C   LIG     1      -1.451  -0.599  -0.367  1.00  0.00     0.173 C 
HETATM    9  O   LIG     1      -1.795  -1.581  -1.082  1.00  0.00    -0.291 OA
BRANCH   8  10
HETATM   10  C   LIG     1      -2.514   0.243   0.300  1.00  0.00     0.069 C 
HETATM   11  C   LIG     1      -3.929  -0.093  -0.170  1.00  0.00     0.009 C 
ENDBRANCH   8  10
ENDBRANCH   1   8
TORSDOF 2
