REMARK  0 active torsions:
REMARK  status: ('A' for Active; 'I' for Inactive)
ROOT
HETATM    1  C   LIG     1      -2.237   1.629  -0.207  1.00  0.00     0.030 C 
HETATM    2  C   LIG     1      -1.122   0.602  -0.149  1.00  0.00    -0.030 A 
HETATM    3  C   LIG     1      -1.404  -0.781  -0.289  1.00  0.00    -0.026 A 
HETATM    4  C   LIG     1      -2.800  -1.293  -0.546  1.00  0.00     0.030 C 
HETATM    5  C   LIG     1      -0.364  -1.712  -0.198  1.00  0.00    -0.009 A 
HETATM    6  C   LIG     1       0.953  -1.316   0.048  1.00  0.00    -0.026 A 
HETATM    7  C   LIG     1       2.018  -2.382   0.133  1.00  0.00     0.030 C 
HETATM    8  C   LIG     1       1.249   0.056   0.237  1.00  0.00    -0.030 A 
HETATM    9  C   LIG     1       2.661   0.488   0.583  1.00  0.00     0.030 C 
HETATM   10  C   LIG     1       0.223   1.025   0.055  1.00  0.00    -0.030 A 
HETATM   11  C   LIG     1       0.555   2.503   0.147  1.00  0.00     0.030 C 
ENDROOT
TORSDOF 0
