REMARK  1 active torsions:
REMARK  status: ('A' for Active; 'I' for Inactive)
REMARK    1  A    between atoms: C_5  and  C_6 
ROOT
HETATM    1  C   LIG     1       0.748   0.064   0.015  1.00  0.00     0.011 A 
HETATM    2  C   LIG     1       1.431   0.225  -1.203  1.00  0.00     0.002 A 
HETATM    3  C   LIG     1       2.820   0.376  -1.222  1.00  0.00     0.011 A 
HETATM    4  C   LIG     1       3.543   0.362  -0.028  1.00  0.00     0.059 A 
HETATM    5  C   LIG     1       2.877   0.191   1.189  1.00  0.00     0.023 A 
HETATM    6  C   LIG     1       1.486   0.039   1.220  1.00  0.00     0.059 A 
HETATM    7 CL   LIG     1       0.715  -0.245   2.778  1.00  0.00    -0.082 Cl
HETATM    8 CL   LIG     1       5.287   0.550  -0.056  1.00  0.00    -0.082 Cl
ENDROOT
BRANCH   1   9
HETATM    9  C   LIG     1      -0.726  -0.078   0.001  1.00  0.00     0.001 A 
HETATM   10  C   LIG     1      -1.536   0.814   0.723  1.00  0.00     0.001 A 
HETATM   11  C   LIG     1      -2.928   0.685   0.691  1.00  0.00     0.011 A 
HETATM   12  C   LIG     1      -3.522  -0.329  -0.067  1.00  0.00     0.058 A 
HETATM   13 CL   LIG     1      -5.269  -0.488  -0.106  1.00  0.00    -0.082 Cl
HETATM   14  C   LIG     1      -2.722  -1.212  -0.798  1.00  0.00     0.011 A 
HETATM   15  C   LIG     1      -1.330  -1.086  -0.769  1.00  0.00     0.001 A 
ENDBRANCH   1   9
TORSDOF 1
