REMARK  0 active torsions:
REMARK  status: ('A' for Active; 'I' for Inactive)
ROOT
HETATM    1  C   LIG     1       2.950   0.257   0.161  1.00  0.00     0.139 C 
HETATM    2  N   LIG     1       1.508  -0.002   0.013  1.00  0.00    -0.244 N 
HETATM    3  C   LIG     1       1.095  -1.173  -0.602  1.00  0.00     0.354 A 
HETATM    4  N   LIG     1      -0.238  -1.447  -0.757  1.00  0.00    -0.171 NA
HETATM    5  C   LIG     1      -1.139  -0.550  -0.298  1.00  0.00     0.194 A 
HETATM    6  N   LIG     1      -2.477  -0.638  -0.356  1.00  0.00    -0.170 NA
HETATM    7  C   LIG     1      -0.768   0.601   0.306  1.00  0.00     0.178 A 
HETATM    8  C   LIG     1       0.574   0.902   0.476  1.00  0.00     0.285 A 
HETATM    9  O   LIG     1       0.915   1.978   1.041  1.00  0.00    -0.265 OA
HETATM   10  N   LIG     1      -1.861   1.298   0.661  1.00  0.00    -0.183 NA
HETATM   11  C   LIG     1      -2.883   0.511   0.240  1.00  0.00     0.370 A 
HETATM   12  O   LIG     1      -4.095   0.818   0.389  1.00  0.00    -0.242 OA
HETATM   13  O   LIG     1       1.944  -2.003  -1.028  1.00  0.00    -0.244 OA
ENDROOT
TORSDOF 0
