REMARK  2 active torsions:
REMARK  status: ('A' for Active; 'I' for Inactive)
REMARK    1  A    between atoms: C_2  and  C_3 
REMARK       I    between atoms: C_2  and  N_5 
REMARK    2  A    between atoms: N_5  and  C_6 
ROOT
HETATM    1  C   LIG     1       0.864  -0.347   0.091  1.00  0.00     0.085 A 
HETATM    2  C   LIG     1       1.494   0.623   0.891  1.00  0.00     0.032 A 
HETATM    3  C   LIG     1       2.891   0.711   0.934  1.00  0.00     0.070 A 
HETATM    4 CL   LIG     1       3.636   1.942   1.945  1.00  0.00    -0.081 Cl
HETATM    5  C   LIG     1       3.671  -0.184   0.183  1.00  0.00     0.068 A 
HETATM    6 CL   LIG     1       5.428  -0.108   0.209  1.00  0.00    -0.082 Cl
HETATM    7  C   LIG     1       3.047  -1.164  -0.595  1.00  0.00     0.014 A 
HETATM    8  C   LIG     1       1.653  -1.250  -0.635  1.00  0.00     0.020 A 
ENDROOT
BRANCH   1   9
HETATM    9  N   LIG     1      -0.568  -0.471   0.050  1.00  0.00    -0.212 NA
HETATM   10  C   LIG     1      -1.476   0.639   0.135  1.00  0.00     0.256 C 
HETATM   11  O   LIG     1      -1.056   1.823   0.018  1.00  0.00    -0.270 OA
BRANCH  10  12
HETATM   12  C   LIG     1      -2.948   0.394   0.269  1.00  0.00     0.090 C 
HETATM   13  C   LIG     1      -3.588   0.199  -1.100  1.00  0.00     0.010 C 
ENDBRANCH  10  12
ENDBRANCH   1   9
TORSDOF 2
