REMARK  3 active torsions:
REMARK  status: ('A' for Active; 'I' for Inactive)
REMARK    1  A    between atoms: CG_2  and  CB_6 
REMARK    2  A    between atoms: CB_6  and  CA_7 
REMARK    3  A    between atoms: CA_7  and  C_9 
ROOT
ATOM      1  CB  HIS A   1      -0.182  -0.703   0.813  1.00  0.00     0.098 C 
ENDROOT
BRANCH   1   2
ATOM      2  CG  HIS A   1       1.037   0.062   0.392  1.00  0.00     0.083 A 
ATOM      3  ND1 HIS A   1       1.250   1.361   0.681  1.00  0.00    -0.227 NA
ATOM      4  CE1 HIS A   1       2.419   1.642   0.066  1.00  0.00     0.199 A 
ATOM      5  NE2 HIS A   1       2.929   0.585  -0.594  1.00  0.00    -0.221 NA
ATOM      6  CD2 HIS A   1       2.059  -0.416  -0.398  1.00  0.00     0.116 A 
ENDBRANCH   1   2
BRANCH   1   7
ATOM      7  CA  HIS A   1      -1.239  -0.749  -0.307  1.00  0.00     0.393 C 
ATOM      8  N   HIS A   1      -2.361  -1.594   0.103  1.00  0.00     0.628 N 
BRANCH   7   9
ATOM      9  C   HIS A   1      -1.744   0.633  -0.620  1.00  0.00     0.224 C 
ATOM     10  O   HIS A   1      -2.402   1.374   0.358  1.00  0.00    -0.646 OA
ATOM     11  OXT HIS A   1      -1.575   1.122  -1.769  1.00  0.00    -0.646 OA
ENDBRANCH   7   9
ENDBRANCH   1   7
TORSDOF 3
