REMARK  0 active torsions:
REMARK  status: ('A' for Active; 'I' for Inactive)
ROOT
HETATM    1  N   LIG     1       2.349  -0.275  -0.173  1.00  0.00    -0.080 NA
HETATM    2  C   LIG     1       0.928  -0.191  -0.064  1.00  0.00     0.157 A 
HETATM    3  N   LIG     1       0.191  -1.326   0.060  1.00  0.00    -0.177 NA
HETATM    4  C   LIG     1      -1.163  -1.275   0.166  1.00  0.00     0.370 A 
HETATM    5  N   LIG     1      -1.804  -0.074   0.149  1.00  0.00    -0.189 NA
HETATM    6  C   LIG     1      -1.103   1.084   0.027  1.00  0.00     0.106 A 
HETATM    7  C   LIG     1       0.287   1.051  -0.083  1.00  0.00     0.054 A 
HETATM    8  O   LIG     1      -1.822  -2.343   0.280  1.00  0.00    -0.242 OA
ENDROOT
TORSDOF 0
