REMARK  0 active torsions:
REMARK  status: ('A' for Active; 'I' for Inactive)
ROOT
HETATM    1  C   LIG     1       1.384   0.204   0.010  1.00  0.00     0.000 A 
HETATM    2  C   LIG     1       0.869  -1.096   0.049  1.00  0.00     0.000 A 
HETATM    3  C   LIG     1      -0.515  -1.300   0.040  1.00  0.00     0.000 A 
HETATM    4  C   LIG     1      -1.384  -0.204  -0.010  1.00  0.00     0.000 A 
HETATM    5  C   LIG     1      -0.869   1.096  -0.049  1.00  0.00     0.000 A 
HETATM    6  C   LIG     1       0.515   1.300  -0.040  1.00  0.00     0.000 A 
ENDROOT
TORSDOF 0
