REMARK  0 active torsions:
REMARK  status: ('A' for Active; 'I' for Inactive)
ROOT
HETATM    1  C   LIG     1      -0.828  -0.115   0.131  1.00  0.00     0.050 C 
HETATM    2  C   LIG     1       0.663   0.092  -0.105  1.00  0.00     0.198 C 
HETATM    3 CL   LIG     1       1.596  -0.621   1.235  1.00  0.00    -0.083 Cl
HETATM    4 CL   LIG     1       1.027   1.833  -0.203  1.00  0.00    -0.083 Cl
HETATM    5 CL   LIG     1       1.152  -0.689  -1.630  1.00  0.00    -0.083 Cl
ENDROOT
TORSDOF 0
