REMARK  2 active torsions:
REMARK  status: ('A' for Active; 'I' for Inactive)
REMARK    1  A    between atoms: CA_2  and  CB_6 
REMARK    2  A    between atoms: CA_2  and  C_3 
ROOT
ATOM      1  N   THR A   1       0.304   1.760   0.109  1.00  0.00     0.630 N 
ATOM      2  CA  THR A   1       0.503   0.383  -0.360  1.00  0.00     0.417 C 
ENDROOT
BRANCH   2   3
ATOM      3  CB  THR A   1      -0.694  -0.508   0.038  1.00  0.00     0.200 C 
ATOM      4  CG2 THR A   1      -2.000  -0.002  -0.585  1.00  0.00     0.038 C 
ATOM      5  OG1 THR A   1      -0.818  -0.549   1.438  1.00  0.00    -0.221 OA
ENDBRANCH   2   3
BRANCH   2   6
ATOM      6  C   THR A   1       1.798  -0.205   0.151  1.00  0.00     0.226 C 
ATOM      7  O   THR A   1       2.206  -1.456  -0.302  1.00  0.00    -0.646 OA
ATOM      8  OXT THR A   1       2.518   0.424   0.973  1.00  0.00    -0.646 OA
ENDBRANCH   2   6
TORSDOF 2
