REMARK  0 active torsions:
REMARK  status: ('A' for Active; 'I' for Inactive)
ROOT
HETATM    1  O   LIG     1       0.296   2.540   0.355  1.00  0.00    -0.286 OA
HETATM    2  C   LIG     1       0.287   1.291   0.188  1.00  0.00     0.198 C 
HETATM    3  C   LIG     1      -0.991   0.525   0.241  1.00  0.00     0.069 A 
HETATM    4  C   LIG     1      -0.927  -0.876   0.442  1.00  0.00     0.044 A 
HETATM    5  C   LIG     1      -2.109  -1.607   0.645  1.00  0.00     0.005 A 
HETATM    6  C   LIG     1      -3.346  -0.970   0.637  1.00  0.00     0.030 A 
HETATM    7  C   LIG     1      -3.429   0.401   0.381  1.00  0.00     0.156 A 
HETATM    8  O   LIG     1      -4.673   1.029   0.336  1.00  0.00    -0.188 OA
HETATM    9  C   LIG     1      -2.267   1.149   0.150  1.00  0.00     0.159 A 
HETATM   10  O   LIG     1      -2.432   2.492  -0.200  1.00  0.00    -0.188 OA
HETATM   11  C   LIG     1       0.381  -1.576   0.433  1.00  0.00     0.196 C 
HETATM   12  C   LIG     1       1.624  -0.824   0.159  1.00  0.00     0.042 A 
HETATM   13  C   LIG     1       2.856  -1.491   0.033  1.00  0.00     0.003 A 
HETATM   14  C   LIG     1       4.027  -0.771  -0.218  1.00  0.00     0.000 A 
HETATM   15  C   LIG     1       3.981   0.617  -0.341  1.00  0.00     0.000 A 
HETATM   16  C   LIG     1       2.765   1.292  -0.215  1.00  0.00     0.003 A 
HETATM   17  C   LIG     1       1.577   0.579   0.033  1.00  0.00     0.042 A 
HETATM   18  O   LIG     1       0.433  -2.819   0.646  1.00  0.00    -0.287 OA
ENDROOT
TORSDOF 0
