REMARK  5 active torsions:
REMARK  status: ('A' for Active; 'I' for Inactive)
REMARK    1  A    between atoms: C_2  and  C_5 
REMARK    2  A    between atoms: C_5  and  C_14 
REMARK    3  A    between atoms: C_5  and  C_6 
REMARK    4  A    between atoms: C_9  and  O_10 
REMARK    5  A    between atoms: C_17  and  O_18 
ROOT
HETATM    1  C   LIG     1       0.046  -1.332   1.200  1.00  0.00     0.087 C 
ENDROOT
BRANCH   1   2
HETATM    2  C   LIG     1       0.280  -2.872   1.292  1.00  0.00     0.206 C 
HETATM    3 CL   LIG     1      -1.212  -3.713   1.799  1.00  0.00    -0.082 Cl
HETATM    4 CL   LIG     1       1.514  -3.213   2.539  1.00  0.00    -0.082 Cl
HETATM    5 CL   LIG     1       0.865  -3.624  -0.221  1.00  0.00    -0.082 Cl
ENDBRANCH   1   2
BRANCH   1   6
HETATM    6  C   LIG     1       1.251  -0.569   0.661  1.00  0.00    -0.015 A 
HETATM    7  C   LIG     1       2.103   0.109   1.552  1.00  0.00    -0.002 A 
HETATM    8  C   LIG     1       3.211   0.819   1.081  1.00  0.00     0.024 A 
HETATM    9  C   LIG     1       3.489   0.869  -0.297  1.00  0.00     0.094 A 
HETATM   10  C   LIG     1       2.642   0.201  -1.186  1.00  0.00     0.024 A 
HETATM   11  C   LIG     1       1.534  -0.510  -0.717  1.00  0.00    -0.002 A 
BRANCH   9  12
HETATM   12  O   LIG     1       4.588   1.568  -0.819  1.00  0.00    -0.328 OA
HETATM   13  C   LIG     1       5.529   2.290  -0.031  1.00  0.00     0.181 C 
ENDBRANCH   9  12
ENDBRANCH   1   6
BRANCH   1  14
HETATM   14  C   LIG     1      -1.247  -0.886   0.517  1.00  0.00    -0.015 A 
HETATM   15  C   LIG     1      -2.004   0.149   1.100  1.00  0.00    -0.002 A 
HETATM   16  C   LIG     1      -3.184   0.599   0.502  1.00  0.00     0.024 A 
HETATM   17  C   LIG     1      -3.633   0.027  -0.701  1.00  0.00     0.094 A 
HETATM   18  C   LIG     1      -2.882  -0.994  -1.289  1.00  0.00     0.024 A 
HETATM   19  C   LIG     1      -1.702  -1.446  -0.693  1.00  0.00    -0.002 A 
BRANCH  17  20
HETATM   20  O   LIG     1      -4.810   0.443  -1.340  1.00  0.00    -0.328 OA
HETATM   21  C   LIG     1      -5.669   1.470  -0.854  1.00  0.00     0.181 C 
ENDBRANCH  17  20
ENDBRANCH   1  14
TORSDOF 5
