REMARK  3 active torsions:
REMARK  status: ('A' for Active; 'I' for Inactive)
REMARK    1  A    between atoms: C_2  and  C_4 
REMARK    2  A    between atoms: C_4  and  C_12 
REMARK    3  A    between atoms: C_4  and  C_5 
ROOT
HETATM    1  C   LIG     1       0.111   1.167  -0.267  1.00  0.00     0.075 C 
ENDROOT
BRANCH   1   2
HETATM    2  C   LIG     1       0.175   2.486   0.551  1.00  0.00     0.167 C 
HETATM    3 CL   LIG     1      -1.024   3.660  -0.059  1.00  0.00    -0.097 Cl
HETATM    4 CL   LIG     1      -0.110   2.267   2.304  1.00  0.00    -0.097 Cl
ENDBRANCH   1   2
BRANCH   1   5
HETATM    5  C   LIG     1      -1.199   0.422  -0.041  1.00  0.00    -0.016 A 
HETATM    6  C   LIG     1      -1.375  -0.427   1.069  1.00  0.00    -0.003 A 
HETATM    7  C   LIG     1      -2.581  -1.108   1.257  1.00  0.00     0.011 A 
HETATM    8  C   LIG     1      -3.624  -0.954   0.340  1.00  0.00     0.058 A 
HETATM    9  C   LIG     1      -3.459  -0.119  -0.769  1.00  0.00     0.011 A 
HETATM   10 CL   LIG     1      -5.136  -1.810   0.578  1.00  0.00    -0.082 Cl
HETATM   11  C   LIG     1      -2.254   0.563  -0.961  1.00  0.00    -0.003 A 
ENDBRANCH   1   5
BRANCH   1  12
HETATM   12  C   LIG     1       1.309   0.229  -0.115  1.00  0.00    -0.016 A 
HETATM   13  C   LIG     1       1.408  -0.870  -0.990  1.00  0.00    -0.003 A 
HETATM   14  C   LIG     1       2.477  -1.765  -0.899  1.00  0.00     0.011 A 
HETATM   15  C   LIG     1       3.470  -1.574   0.064  1.00  0.00     0.058 A 
HETATM   16  C   LIG     1       3.393  -0.484   0.935  1.00  0.00     0.011 A 
HETATM   17 CL   LIG     1       4.812  -2.697   0.177  1.00  0.00    -0.082 Cl
HETATM   18  C   LIG     1       2.325   0.414   0.848  1.00  0.00    -0.003 A 
ENDBRANCH   1  12
TORSDOF 3
