REMARK  2 active torsions:
REMARK  status: ('A' for Active; 'I' for Inactive)
REMARK    1  A    between atoms: C_4  and  C_5 
REMARK    2  A    between atoms: C_4  and  C_12 
ROOT
HETATM    1 CL   LIG     1      -1.495  -3.358  -0.977  1.00  0.00    -0.070 Cl
HETATM    2  C   LIG     1      -0.015  -2.407  -0.883  1.00  0.00     0.115 C 
HETATM    3 CL   LIG     1       1.453  -3.209  -1.433  1.00  0.00    -0.070 Cl
HETATM    4  C   LIG     1      -0.007  -1.139  -0.418  1.00  0.00     0.021 C 
ENDROOT
BRANCH   4   5
HETATM    5  C   LIG     1       1.261  -0.395  -0.227  1.00  0.00     0.002 A 
HETATM    6  C   LIG     1       1.442   0.852  -0.848  1.00  0.00     0.001 A 
HETATM    7  C   LIG     1       2.620   1.577  -0.646  1.00  0.00     0.011 A 
HETATM    8  C   LIG     1       3.623   1.068   0.186  1.00  0.00     0.058 A 
HETATM    9  C   LIG     1       3.443  -0.165   0.822  1.00  0.00     0.011 A 
HETATM   10 CL   LIG     1       5.099   1.980   0.440  1.00  0.00    -0.082 Cl
HETATM   11  C   LIG     1       2.265  -0.891   0.622  1.00  0.00     0.001 A 
ENDBRANCH   4   5
BRANCH   4  12
HETATM   12  C   LIG     1      -1.266  -0.434  -0.077  1.00  0.00     0.002 A 
HETATM   13  C   LIG     1      -2.272  -0.252  -1.042  1.00  0.00     0.001 A 
HETATM   14  C   LIG     1      -3.441   0.445  -0.719  1.00  0.00     0.011 A 
HETATM   15  C   LIG     1      -3.610   0.976   0.564  1.00  0.00     0.058 A 
HETATM   16  C   LIG     1      -2.605   0.814   1.524  1.00  0.00     0.011 A 
HETATM   17 CL   LIG     1      -5.075   1.851   0.966  1.00  0.00    -0.082 Cl
HETATM   18  C   LIG     1      -1.435   0.118   1.204  1.00  0.00     0.001 A 
ENDBRANCH   4  12
TORSDOF 2
