REMARK  0 active torsions:
REMARK  status: ('A' for Active; 'I' for Inactive)
ROOT
HETATM    1  O   LIG     1      -2.473  -0.632  -0.357  1.00  0.00    -0.169 OA
HETATM    2  C   LIG     1      -1.125  -0.338  -0.186  1.00  0.00     0.213 A 
HETATM    3  N   LIG     1      -0.175  -1.228  -0.586  1.00  0.00    -0.218 NA
HETATM    4  C   LIG     1       1.153  -0.972  -0.433  1.00  0.00     0.101 A 
HETATM    5  C   LIG     1       1.572   0.229   0.145  1.00  0.00     0.021 A 
HETATM    6  C   LIG     1       0.615   1.156   0.562  1.00  0.00     0.005 A 
HETATM    7  C   LIG     1      -0.744   0.875   0.397  1.00  0.00     0.047 A 
ENDROOT
TORSDOF 0
