REMARK  2 active torsions:
REMARK  status: ('A' for Active; 'I' for Inactive)
REMARK    1  A    between atoms: O_2  and  C_3 
REMARK    2  A    between atoms: C_3  and  C_4 
ROOT
HETATM    1  C   LIG     1       0.164  -0.010  -0.024  1.00  0.00     0.076 A 
HETATM    2  C   LIG     1      -0.965   0.681   0.493  1.00  0.00     0.076 A 
HETATM    3 CL   LIG     1      -0.768   2.095   1.538  1.00  0.00    -0.081 Cl
HETATM    4  C   LIG     1      -2.267   0.269   0.126  1.00  0.00     0.082 A 
HETATM    5  N   LIG     1      -3.434   0.934   0.629  1.00  0.00    -0.100 NA
HETATM    6  C   LIG     1      -2.433  -0.809  -0.754  1.00  0.00     0.026 A 
HETATM    7  C   LIG     1      -1.326  -1.476  -1.274  1.00  0.00     0.059 A 
HETATM    8 CL   LIG     1      -1.553  -2.821  -2.378  1.00  0.00    -0.082 Cl
HETATM    9  C   LIG     1      -0.039  -1.079  -0.914  1.00  0.00     0.018 A 
ENDROOT
BRANCH   1  10
HETATM   10  C   LIG     1       1.561   0.346   0.333  1.00  0.00     0.297 C 
HETATM   11  O   LIG     1       1.818   0.921   1.425  1.00  0.00    -0.259 OA
BRANCH  10  12
HETATM   12  O   LIG     1       2.600   0.003  -0.542  1.00  0.00    -0.296 OA
HETATM   13  C   LIG     1       3.978   0.283  -0.301  1.00  0.00     0.185 C 
ENDBRANCH  10  12
ENDBRANCH   1  10
TORSDOF 2
