REMARK  5 active torsions:
REMARK  status: ('A' for Active; 'I' for Inactive)
REMARK    1  A    between atoms: C_2  and  N_4 
REMARK    2  A    between atoms: N_4  and  C_5 
REMARK    3  A    between atoms: C_7  and  N_8 
REMARK    4  A    between atoms: N_8  and  C_9 
REMARK    5  A    between atoms: C_13  and  S_14 
ROOT
HETATM    1  C   LIG     1       1.429   0.664  -0.381  1.00  0.00     0.763 A 
HETATM    2  N   LIG     1       0.469  -0.298  -0.399  1.00  0.00     0.134 NA
HETATM    3  C   LIG     1      -0.842   0.036  -0.293  1.00  0.00     0.763 A 
HETATM    4  N   LIG     1      -1.194   1.342  -0.165  1.00  0.00    -0.033 NA
HETATM    5  C   LIG     1      -0.240   2.306  -0.147  1.00  0.00     0.226 A 
HETATM    6  N   LIG     1       1.069   1.968  -0.257  1.00  0.00    -0.033 NA
ENDROOT
BRANCH   1   7
HETATM    7  N   LIG     1       2.815   0.319  -0.497  1.00  0.00    -0.087 NA
BRANCH   7   8
HETATM    8  C   LIG     1       3.280  -1.070  -0.585  1.00  0.00     0.122 C 
HETATM    9  C   LIG     1       4.713  -1.118  -1.125  1.00  0.00     0.027 C 
HETATM   10  C   LIG     1       3.207  -1.737   0.792  1.00  0.00     0.027 C 
ENDBRANCH   7   8
ENDBRANCH   1   7
BRANCH   3  11
HETATM   11  N   LIG     1      -1.841  -0.993  -0.308  1.00  0.00    -0.087 NA
BRANCH  11  12
HETATM   12  C   LIG     1      -3.276  -0.703  -0.222  1.00  0.00     0.122 C 
HETATM   13  C   LIG     1      -3.790  -0.189  -1.571  1.00  0.00     0.027 C 
HETATM   14  C   LIG     1      -4.047  -1.958   0.200  1.00  0.00     0.027 C 
ENDBRANCH  11  12
ENDBRANCH   3  11
BRANCH   5  15
HETATM   15  S   LIG     1      -0.709   4.024   0.018  1.00  0.00    -0.073 SA
HETATM   16  C   LIG     1      -0.637   3.987   1.836  1.00  0.00     0.077 C 
ENDBRANCH   5  15
TORSDOF 5
