REMARK  2 active torsions:
REMARK  status: ('A' for Active; 'I' for Inactive)
REMARK    1  A    between atoms: C_2  and  C_5 
REMARK    2  A    between atoms: C_5  and  C_8 
ROOT
HETATM    1  C   LIG     1       0.321   0.669  -0.521  1.00  0.00     0.127 C 
HETATM    2  C   LIG     1       0.747   0.064  -1.881  1.00  0.00     0.033 C 
HETATM    3  O   LIG     1      -0.098   1.984  -0.822  1.00  0.00    -0.226 OA
ENDROOT
BRANCH   1   4
HETATM    4  C   LIG     1      -0.909  -0.133   0.128  1.00  0.00     0.026 C 
HETATM    5  C   LIG     1      -1.091   0.209   1.628  1.00  0.00     0.002 C 
HETATM    6  C   LIG     1      -2.235   0.249  -0.585  1.00  0.00     0.002 C 
HETATM    7  C   LIG     1      -0.769  -1.674   0.001  1.00  0.00     0.002 C 
ENDBRANCH   1   4
BRANCH   1   8
HETATM    8  C   LIG     1       1.593   0.804   0.392  1.00  0.00     0.030 C 
HETATM    9  C   LIG     1       2.327  -0.482   0.787  1.00  0.00     0.003 C 
ENDBRANCH   1   8
TORSDOF 2
