REMARK  3 active torsions:
REMARK  status: ('A' for Active; 'I' for Inactive)
REMARK    1  A    between atoms: C_2  and  CA_4 
REMARK    2  A    between atoms: CA_4  and  CB_6 
REMARK    3  A    between atoms: CB_6  and  CG_7 
ROOT
ATOM      1  CG  TRP A   1      -0.084  -0.092  -0.040  1.00  0.00     0.001 A 
ATOM      2  CD1 TRP A   1      -0.253   1.172  -0.613  1.00  0.00     0.095 A 
ATOM      3  NE1 TRP A   1       0.947   1.731  -0.893  1.00  0.00    -0.244 NA
ATOM      4  CE2 TRP A   1       1.873   0.839  -0.508  1.00  0.00     0.081 A 
ATOM      5  CD2 TRP A   1       1.284  -0.284   0.014  1.00  0.00     0.015 A 
ATOM      6  CE3 TRP A   1       2.041  -1.359   0.480  1.00  0.00     0.001 A 
ATOM      7  CZ3 TRP A   1       3.442  -1.260   0.400  1.00  0.00     0.000 A 
ATOM      8  CH2 TRP A   1       4.048  -0.103  -0.138  1.00  0.00     0.002 A 
ATOM      9  CZ2 TRP A   1       3.258   0.965  -0.600  1.00  0.00     0.019 A 
ENDROOT
BRANCH   1  10
ATOM     10  CB  TRP A   1      -1.126  -1.085   0.421  1.00  0.00     0.079 C 
BRANCH  10  11
ATOM     11  CA  TRP A   1      -2.596  -0.613   0.349  1.00  0.00     0.392 C 
ATOM     12  N   TRP A   1      -2.978  -0.288  -1.027  1.00  0.00     0.628 N 
BRANCH  11  13
ATOM     13  C   TRP A   1      -2.856   0.536   1.300  1.00  0.00     0.224 C 
ATOM     14  O   TRP A   1      -2.679   0.359   2.535  1.00  0.00    -0.646 OA
ATOM     15  OXT TRP A   1      -3.301   1.784   0.863  1.00  0.00    -0.646 OA
ENDBRANCH  11  13
ENDBRANCH  10  11
ENDBRANCH   1  10
TORSDOF 3
