REMARK  0 active torsions:
REMARK  status: ('A' for Active; 'I' for Inactive)
ROOT
HETATM    1  N   LIG     1      -1.775  -1.862   0.101  1.00  0.00    -0.078 NA
HETATM    2  C   LIG     1      -1.152  -0.584   0.233  1.00  0.00     0.173 A 
HETATM    3  N   LIG     1      -1.841   0.476   0.752  1.00  0.00    -0.208 NA
HETATM    4  C   LIG     1      -1.258   1.711   0.886  1.00  0.00     0.202 A 
HETATM    5  N   LIG     1       0.039   1.912   0.501  1.00  0.00    -0.203 NA
HETATM    6  C   LIG     1       0.718   0.858  -0.012  1.00  0.00     0.186 A 
HETATM    7  C   LIG     1       0.165  -0.367  -0.155  1.00  0.00     0.150 A 
HETATM    8  N   LIG     1       1.055  -1.224  -0.687  1.00  0.00    -0.218 NA
HETATM    9  C   LIG     1       2.158  -0.441  -0.850  1.00  0.00     0.201 A 
HETATM   10  N   LIG     1       1.981   0.842  -0.445  1.00  0.00    -0.203 NA
ENDROOT
TORSDOF 0
