REMARK  3 active torsions:
REMARK  status: ('A' for Active; 'I' for Inactive)
REMARK    1  A    between atoms: C_2  and  C_3 
REMARK    2  A    between atoms: C_3  and  C_4 
REMARK    3  A    between atoms: C_4  and  C_5 
ROOT
HETATM    1  C   LIG     1      -0.070   0.904   0.611  1.00  0.00     0.157 C 
HETATM    2  O   LIG     1      -0.096   1.472   1.694  1.00  0.00    -0.296 OA
ENDROOT
BRANCH   1   3
HETATM    3  C   LIG     1       1.065   1.229  -0.332  1.00  0.00     0.129 C 
BRANCH   3   4
HETATM    4  C   LIG     1       2.356   0.646   0.179  1.00  0.00     0.158 C 
HETATM    5  C   LIG     1       3.064  -0.453  -0.558  1.00  0.00     0.073 C 
HETATM    6  O   LIG     1       2.848   1.082   1.209  1.00  0.00    -0.296 OA
ENDBRANCH   3   4
ENDBRANCH   1   3
BRANCH   1   7
HETATM    7  C   LIG     1      -1.183  -0.077   0.232  1.00  0.00     0.052 C 
HETATM    8  C   LIG     1      -2.115  -0.338   1.438  1.00  0.00     0.007 C 
HETATM    9  C   LIG     1      -0.574  -1.424  -0.208  1.00  0.00     0.007 C 
HETATM   10  C   LIG     1      -2.023   0.514  -0.917  1.00  0.00     0.007 C 
ENDBRANCH   1   7
TORSDOF 3
