REMARK  5 active torsions:
REMARK  status: ('A' for Active; 'I' for Inactive)
REMARK    1  A    between atoms: C_5  and  C_6 
REMARK    2  A    between atoms: C_6  and  C_7 
REMARK    3  A    between atoms: C_9  and  O_10 
REMARK    4  A    between atoms: C_12  and  O_13 
REMARK    5  A    between atoms: C_15  and  O_16 
ROOT
HETATM    1  C   LIG     1       0.274  -0.249   1.184  1.00  0.00    -0.014 A 
HETATM    2  C   LIG     1       0.127   1.121   0.956  1.00  0.00     0.022 A 
HETATM    3  C   LIG     1      -1.077   1.657   0.491  1.00  0.00     0.118 A 
HETATM    4  C   LIG     1      -2.183   0.799   0.251  1.00  0.00     0.138 A 
HETATM    5  C   LIG     1      -2.045  -0.595   0.500  1.00  0.00     0.118 A 
HETATM    6  C   LIG     1      -0.816  -1.097   0.970  1.00  0.00     0.022 A 
ENDROOT
BRANCH   1   7
HETATM    7  C   LIG     1       1.586  -0.798   1.691  1.00  0.00     0.057 C 
BRANCH   7   8
HETATM    8  C   LIG     1       2.708  -0.535   0.711  1.00  0.00     0.033 A 
HETATM    9  C   LIG     1       3.603   0.517   0.954  1.00  0.00     0.100 A 
HETATM   10  N   LIG     1       4.599   0.790   0.075  1.00  0.00    -0.213 NA
HETATM   11  C   LIG     1       4.751   0.059  -1.058  1.00  0.00     0.238 A 
HETATM   12  N   LIG     1       5.805   0.363  -1.968  1.00  0.00    -0.060 NA
HETATM   13  N   LIG     1       3.897  -0.962  -1.323  1.00  0.00    -0.201 NA
HETATM   14  C   LIG     1       2.881  -1.281  -0.478  1.00  0.00     0.151 A 
HETATM   15  N   LIG     1       2.018  -2.369  -0.826  1.00  0.00    -0.080 NA
ENDBRANCH   7   8
ENDBRANCH   1   7
BRANCH   5  16
HETATM   16  O   LIG     1      -3.129  -1.459   0.278  1.00  0.00    -0.326 OA
HETATM   17  C   LIG     1      -3.110  -2.869   0.480  1.00  0.00     0.181 C 
ENDBRANCH   5  16
BRANCH   3  18
HETATM   18  O   LIG     1      -1.097   3.051   0.292  1.00  0.00    -0.326 OA
HETATM   19  C   LIG     1      -2.193   3.831  -0.172  1.00  0.00     0.181 C 
ENDBRANCH   3  18
BRANCH   4  20
HETATM   20  O   LIG     1      -3.380   1.369  -0.225  1.00  0.00    -0.324 OA
HETATM   21  C   LIG     1      -4.591   0.692  -0.542  1.00  0.00     0.182 C 
ENDBRANCH   4  20
TORSDOF 5
