REMARK  1 active torsions:
REMARK  status: ('A' for Active; 'I' for Inactive)
REMARK    1  A    between atoms: C_2  and  C_3 
ROOT
HETATM    1  C   LIG     1       0.716  -0.223   0.080  1.00  0.00     0.065 A 
HETATM    2  C   LIG     1       0.110   1.010   0.388  1.00  0.00     0.007 A 
HETATM    3  C   LIG     1      -1.273   1.171   0.256  1.00  0.00     0.012 A 
HETATM    4  C   LIG     1      -2.067   0.106  -0.177  1.00  0.00     0.058 A 
HETATM    5 CL   LIG     1      -3.801   0.312  -0.340  1.00  0.00    -0.082 Cl
HETATM    6  C   LIG     1      -1.477  -1.125  -0.475  1.00  0.00     0.012 A 
HETATM    7  C   LIG     1      -0.095  -1.292  -0.344  1.00  0.00     0.007 A 
ENDROOT
BRANCH   1   8
HETATM    8  C   LIG     1       2.181  -0.414   0.218  1.00  0.00     0.211 C 
HETATM    9  O   LIG     1       2.650  -1.576   0.345  1.00  0.00    -0.644 OA
HETATM   10  O   LIG     1       3.068   0.662   0.195  1.00  0.00    -0.644 OA
ENDBRANCH   1   8
TORSDOF 1
