REMARK  0 active torsions:
REMARK  status: ('A' for Active; 'I' for Inactive)
ROOT
HETATM    1 CL   LIG     1      -1.341   1.053  -0.063  1.00  0.00    -0.100 Cl
HETATM    2  C   LIG     1      -0.050  -0.167   0.004  1.00  0.00     0.162 C 
HETATM    3 BR   LIG     1       1.671   0.716   0.019  1.00  0.00    -0.062 Br
ENDROOT
TORSDOF 0
