REMARK  0 active torsions:
REMARK  status: ('A' for Active; 'I' for Inactive)
ROOT
HETATM    1  C   LIG     1      -0.001  -0.190   0.001  1.00  0.00     0.134 C 
HETATM    2 BR   LIG     1      -1.574   0.933  -0.046  1.00  0.00    -0.067 Br
HETATM    3 BR   LIG     1       1.582   0.919   0.039  1.00  0.00    -0.067 Br
ENDROOT
TORSDOF 0
