REMARK  0 active torsions:
REMARK  status: ('A' for Active; 'I' for Inactive)
ROOT
HETATM    1  C   LIG     1      -0.791   0.120  -0.051  1.00  0.00     0.013 C 
HETATM    2  C   LIG     1       0.677  -0.276  -0.011  1.00  0.00     0.068 C 
HETATM    3 BR   LIG     1       1.758   1.217   0.585  1.00  0.00    -0.081 Br
ENDROOT
TORSDOF 0
