REMARK  1 active torsions:
REMARK  status: ('A' for Active; 'I' for Inactive)
REMARK    1  A    between atoms: C_3  and  C_4 
ROOT
HETATM    1 CL   LIG     1      -0.708   2.346   1.461  1.00  0.00    -0.082 Cl
HETATM    2  C   LIG     1      -1.493   0.941   0.744  1.00  0.00     0.059 A 
HETATM    3  C   LIG     1      -0.760  -0.041   0.048  1.00  0.00     0.022 A 
HETATM    4  C   LIG     1      -1.439  -1.136  -0.530  1.00  0.00     0.070 A 
HETATM    5 CL   LIG     1      -0.537  -2.399  -1.376  1.00  0.00    -0.081 Cl
HETATM    6  C   LIG     1      -2.838  -1.239  -0.411  1.00  0.00     0.079 A 
HETATM    7 CL   LIG     1      -3.694  -2.605  -1.128  1.00  0.00    -0.081 Cl
HETATM    8  C   LIG     1      -3.555  -0.252   0.285  1.00  0.00     0.070 A 
HETATM    9 CL   LIG     1      -5.304  -0.341   0.457  1.00  0.00    -0.081 Cl
HETATM   10  C   LIG     1      -2.881   0.829   0.857  1.00  0.00     0.024 A 
ENDROOT
BRANCH   3  11
HETATM   11  C   LIG     1       0.709   0.079  -0.073  1.00  0.00     0.003 A 
HETATM   12  C   LIG     1       1.292   0.381  -1.312  1.00  0.00     0.001 A 
HETATM   13  C   LIG     1       2.680   0.495  -1.425  1.00  0.00     0.012 A 
HETATM   14  C   LIG     1       3.498   0.309  -0.304  1.00  0.00     0.068 A 
HETATM   15  C   LIG     1       2.918   0.007   0.940  1.00  0.00     0.068 A 
HETATM   16 CL   LIG     1       5.240   0.461  -0.486  1.00  0.00    -0.082 Cl
HETATM   17 CL   LIG     1       3.908  -0.233   2.373  1.00  0.00    -0.082 Cl
HETATM   18  C   LIG     1       1.527  -0.107   1.051  1.00  0.00     0.012 A 
ENDBRANCH   3  11
TORSDOF 1
