REMARK  0 active torsions:
REMARK  status: ('A' for Active; 'I' for Inactive)
ROOT
HETATM    1  C   LIG     1      -0.806   0.094  -0.051  1.00  0.00     0.012 C 
HETATM    2  C   LIG     1       0.658  -0.299   0.050  1.00  0.00     0.063 C 
HETATM    3  I   LIG     1       1.897   1.442   0.064  1.00  0.00    -0.075 I 
ENDROOT
TORSDOF 0
