REMARK  0 active torsions:
REMARK  status: ('A' for Active; 'I' for Inactive)
ROOT
HETATM    1  C   LIG     1      -0.001  -0.154   0.008  1.00  0.00     0.189 C 
HETATM    2 CL   LIG     1       1.458   0.862  -0.032  1.00  0.00    -0.095 Cl
HETATM    3 CL   LIG     1      -1.446   0.880  -0.061  1.00  0.00    -0.095 Cl
ENDROOT
TORSDOF 0
