REMARK  0 active torsions:
REMARK  status: ('A' for Active; 'I' for Inactive)
ROOT
HETATM    1  C   LIG     1      -0.888   0.287  -0.166  1.00  0.00     0.013 C 
HETATM    2  C   LIG     1       0.304  -0.639   0.031  1.00  0.00     0.069 C 
HETATM    3  S   LIG     1       1.853   0.217  -0.391  1.00  0.00    -0.082 SA
ENDROOT
TORSDOF 0
