REMARK  0 active torsions:
REMARK  status: ('A' for Active; 'I' for Inactive)
ROOT
HETATM    1  C   LIG     1      -1.247  -0.118  -0.319  1.00  0.00     0.012 C 
HETATM    2  C   LIG     1      -0.005  -0.122   0.571  1.00  0.00     0.057 C 
HETATM    3 BR   LIG     1      -0.143   1.290   1.896  1.00  0.00    -0.082 Br
HETATM    4  C   LIG     1       1.265   0.068  -0.256  1.00  0.00     0.012 C 
ENDROOT
TORSDOF 0
