REMARK  0 active torsions:
REMARK  status: ('A' for Active; 'I' for Inactive)
ROOT
HETATM    1  C   LIG     1      -0.001   0.005   0.165  1.00  0.00     0.169 C 
HETATM    2 BR   LIG     1      -1.400  -1.179  -0.453  1.00  0.00    -0.056 Br
HETATM    3 BR   LIG     1      -0.304   1.781  -0.537  1.00  0.00    -0.056 Br
HETATM    4 BR   LIG     1       1.713  -0.647  -0.449  1.00  0.00    -0.056 Br
ENDROOT
TORSDOF 0
