REMARK  0 active torsions:
REMARK  status: ('A' for Active; 'I' for Inactive)
ROOT
HETATM    1  C   LIG     1       1.281  -0.018  -0.153  1.00  0.00     0.018 C 
HETATM    2  C   LIG     1      -0.055  -0.060   0.586  1.00  0.00     0.080 C 
HETATM    3 CL   LIG     1      -0.265  -1.653   1.363  1.00  0.00    -0.115 Cl
HETATM    4  C   LIG     1      -1.220   0.206  -0.366  1.00  0.00     0.018 C 
ENDROOT
TORSDOF 0
