REMARK  0 active torsions:
REMARK  status: ('A' for Active; 'I' for Inactive)
ROOT
HETATM    1 BR   LIG     1       1.809  -0.134  -0.421  1.00  0.00    -0.046 Br
HETATM    2  C   LIG     1      -0.035   0.003   0.143  1.00  0.00     0.214 C 
HETATM    3 CL   LIG     1      -0.740   1.506  -0.495  1.00  0.00    -0.084 Cl
HETATM    4 CL   LIG     1      -0.950  -1.389  -0.478  1.00  0.00    -0.084 Cl
ENDROOT
TORSDOF 0
