REMARK  0 active torsions:
REMARK  status: ('A' for Active; 'I' for Inactive)
ROOT
HETATM    1  C   LIG     1      -0.803  -0.172  -0.028  1.00  0.00     0.035 C 
HETATM    2  C   LIG     1       0.675   0.140   0.163  1.00  0.00     0.159 C 
HETATM    3 CL   LIG     1       1.672  -1.104  -0.631  1.00  0.00    -0.097 Cl
HETATM    4 CL   LIG     1       1.060   1.732  -0.536  1.00  0.00    -0.097 Cl
ENDROOT
TORSDOF 0
