REMARK  0 active torsions:
REMARK  status: ('A' for Active; 'I' for Inactive)
ROOT
HETATM    1  C   LIG     1      -1.255  -0.322  -0.005  1.00  0.00     0.011 C 
HETATM    2  C   LIG     1       0.040   0.356  -0.448  1.00  0.00     0.053 C 
HETATM    3  I   LIG     1      -0.106   2.470  -0.131  1.00  0.00    -0.075 I 
HETATM    4  C   LIG     1       1.241  -0.199   0.314  1.00  0.00     0.011 C 
ENDROOT
TORSDOF 0
