REMARK  0 active torsions:
REMARK  status: ('A' for Active; 'I' for Inactive)
ROOT
HETATM    1  C   LIG     1      -0.770  -0.039   0.109  1.00  0.00     0.025 C 
HETATM    2  C   LIG     1       0.549   0.028  -0.078  1.00  0.00     0.115 C 
HETATM    3 CL   LIG     1       1.249   1.363  -0.978  1.00  0.00    -0.070 Cl
HETATM    4 CL   LIG     1       1.601  -1.218   0.574  1.00  0.00    -0.070 Cl
ENDROOT
TORSDOF 0
