REMARK  0 active torsions:
REMARK  status: ('A' for Active; 'I' for Inactive)
ROOT
HETATM    1  C   LIG     1      -0.299   1.359  -0.036  1.00  0.00     0.285 C 
HETATM    2  N   LIG     1      -0.176  -0.035  -0.489  1.00  0.00     0.143 N 
HETATM    3  C   LIG     1      -0.979  -0.916   0.372  1.00  0.00     0.285 C 
HETATM    4  C   LIG     1       1.235  -0.451  -0.456  1.00  0.00     0.285 C 
ENDROOT
TORSDOF 0
