REMARK  0 active torsions:
REMARK  status: ('A' for Active; 'I' for Inactive)
ROOT
HETATM    1  C   LIG     1       1.184   0.064   0.356  1.00  0.00     0.035 C 
HETATM    2  C   LIG     1      -0.013  -0.250  -0.535  1.00  0.00     0.145 A 
HETATM    3  C   LIG     1      -1.330   0.242  -0.073  1.00  0.00     0.172 A 
HETATM    4  O   LIG     1      -0.934  -1.100   0.105  1.00  0.00    -0.352 OA
ENDROOT
TORSDOF 0
