REMARK  1 active torsions:
REMARK  status: ('A' for Active; 'I' for Inactive)
REMARK    1  A    between atoms: C_2  and  C_5 
ROOT
HETATM    1  C   LIG     1      -0.104  -1.301  -0.883  1.00  0.00     0.003 C 
HETATM    2  C   LIG     1      -0.148  -0.086   0.066  1.00  0.00     0.031 C 
HETATM    3  C   LIG     1      -0.546  -0.564   1.476  1.00  0.00     0.003 C 
HETATM    4  C   LIG     1      -1.200   0.923  -0.439  1.00  0.00     0.003 C 
ENDROOT
BRANCH   2   5
HETATM    5  C   LIG     1       1.243   0.586   0.134  1.00  0.00     0.182 C 
HETATM    6  O   LIG     1       1.643   1.036  -1.133  1.00  0.00    -0.221 OA
ENDBRANCH   2   5
TORSDOF 1
