REMARK  1 active torsions:
REMARK  status: ('A' for Active; 'I' for Inactive)
REMARK    1  A    between atoms: C_2  and  C_5 
ROOT
HETATM    1  C   LIG     1      -0.636   1.402  -0.499  1.00  0.00     0.000 C 
HETATM    2  C   LIG     1      -0.431  -0.066  -0.070  1.00  0.00     0.000 C 
HETATM    3  C   LIG     1      -0.705  -0.204   1.443  1.00  0.00     0.000 C 
HETATM    4  C   LIG     1      -1.445  -0.945  -0.832  1.00  0.00     0.000 C 
ENDROOT
BRANCH   2   5
HETATM    5  C   LIG     1       1.003  -0.559  -0.427  1.00  0.00     0.000 C 
HETATM    6  C   LIG     1       2.146   0.209   0.248  1.00  0.00     0.000 C 
ENDBRANCH   2   5
TORSDOF 1
