REMARK  4 active torsions:
REMARK  status: ('A' for Active; 'I' for Inactive)
REMARK    1  A    between atoms: N_2  and  C_3 
REMARK    2  A    between atoms: C_23  and  C_24 
REMARK       I    between atoms: C_24  and  N_25 
REMARK    3  A    between atoms: N_25  and  C_26 
REMARK    4  A    between atoms: C_26  and  N_27 
ROOT
HETATM    1  C   LIG     1      -0.246  -2.178  -1.066  1.00  0.00     0.270 C 
HETATM    2  C   LIG     1      -0.842  -0.768  -0.794  1.00  0.00     0.080 C 
HETATM    3  C   LIG     1      -2.377  -0.700  -0.892  1.00  0.00     0.013 C 
HETATM    4  C   LIG     1      -2.787   0.791  -0.830  1.00  0.00     0.059 C 
HETATM    5  C   LIG     1      -2.252   1.429   0.452  1.00  0.00     0.043 C 
HETATM    6  C   LIG     1      -3.187   2.240   1.253  1.00  0.00     0.195 C 
HETATM    7  C   LIG     1      -4.583   1.776   1.330  1.00  0.00     0.062 A 
HETATM    8  C   LIG     1      -5.112   1.066   0.227  1.00  0.00     0.011 A 
HETATM    9  C   LIG     1      -4.321   1.094  -1.089  1.00  0.00     0.149 C 
HETATM   10  O   LIG     1      -4.438   2.415  -1.573  1.00  0.00    -0.221 OA
HETATM   11  C   LIG     1      -4.914   0.145  -2.163  1.00  0.00     0.038 C 
HETATM   12  C   LIG     1      -6.425   0.553   0.322  1.00  0.00    -0.002 A 
HETATM   13  C   LIG     1      -7.171   0.717   1.490  1.00  0.00     0.002 A 
HETATM   14  C   LIG     1      -6.641   1.415   2.571  1.00  0.00     0.028 A 
HETATM   15  C   LIG     1      -5.347   1.945   2.503  1.00  0.00     0.134 A 
HETATM   16  O   LIG     1      -4.817   2.618   3.604  1.00  0.00    -0.190 OA
HETATM   17  O   LIG     1      -2.794   3.251   1.899  1.00  0.00    -0.287 OA
HETATM   18  C   LIG     1      -1.065   1.059   0.995  1.00  0.00     0.142 C 
HETATM   19  C   LIG     1      -0.345  -0.221   0.563  1.00  0.00     0.225 C 
HETATM   20  C   LIG     1       1.140  -0.049   0.375  1.00  0.00     0.213 C 
HETATM   21  C   LIG     1       1.912  -1.209  -0.140  1.00  0.00     0.118 C 
HETATM   22  C   LIG     1       1.256  -2.247  -0.732  1.00  0.00     0.147 C 
HETATM   23  O   LIG     1       1.914  -3.449  -1.013  1.00  0.00    -0.193 OA
HETATM   24  O   LIG     1       1.711   1.054   0.597  1.00  0.00    -0.288 OA
HETATM   25  O   LIG     1      -0.522  -1.183   1.579  1.00  0.00    -0.211 OA
HETATM   26  O   LIG     1      -0.597   1.728   2.130  1.00  0.00    -0.192 OA
ENDROOT
BRANCH  21  27
HETATM   27  C   LIG     1       3.383  -1.203   0.023  1.00  0.00     0.281 C 
HETATM   28  N   LIG     1       3.967  -0.751   1.255  1.00  0.00    -0.200 NA
HETATM   29  O   LIG     1       4.121  -1.558  -0.937  1.00  0.00    -0.265 OA
BRANCH  28  30
HETATM   30  C   LIG     1       5.395  -0.477   1.414  1.00  0.00     0.379 C 
BRANCH  30  31
HETATM   31  N   LIG     1       5.596   0.951   1.740  1.00  0.00     0.162 N 
HETATM   32  C   LIG     1       6.992   1.215   2.117  1.00  0.00     0.253 C 
HETATM   33  C   LIG     1       7.747   1.635   0.864  1.00  0.00     0.037 C 
HETATM   34  C   LIG     1       6.679   2.012  -0.146  1.00  0.00     0.037 C 
HETATM   35  C   LIG     1       5.353   1.808   0.570  1.00  0.00     0.253 C 
ENDBRANCH  30  31
ENDBRANCH  28  30
ENDBRANCH  21  27
BRANCH   1  36
HETATM   36  N   LIG     1      -0.557  -2.583  -2.466  1.00  0.00     0.146 N 
HETATM   37  C   LIG     1       0.410  -2.111  -3.477  1.00  0.00     0.286 C 
HETATM   38  C   LIG     1      -0.789  -4.030  -2.599  1.00  0.00     0.286 C 
ENDBRANCH   1  36
TORSDOF 4
