REMARK  2 active torsions:
REMARK  status: ('A' for Active; 'I' for Inactive)
REMARK    1  A    between atoms: C_2  and  C_3 
REMARK    2  A    between atoms: C_3  and  C_5 
ROOT
HETATM    1  C   LIG     1       0.219  -0.412  -0.141  1.00  0.00     0.010 A 
HETATM    2  C   LIG     1       1.171  -0.970   0.731  1.00  0.00    -0.002 A 
HETATM    3  C   LIG     1       2.479  -0.479   0.757  1.00  0.00    -0.000 A 
HETATM    4  C   LIG     1       2.851   0.572  -0.086  1.00  0.00    -0.000 A 
HETATM    5  C   LIG     1       1.915   1.133  -0.957  1.00  0.00    -0.000 A 
HETATM    6  C   LIG     1       0.605   0.645  -0.988  1.00  0.00    -0.002 A 
ENDROOT
BRANCH   1   7
HETATM    7  C   LIG     1      -1.198  -0.952  -0.161  1.00  0.00     0.214 C 
HETATM    8  O   LIG     1      -1.697  -1.004  -1.474  1.00  0.00    -0.216 OA
BRANCH   7   9
HETATM    9  C   LIG     1      -2.136  -0.114   0.720  1.00  0.00     0.375 C 
HETATM   10  N   LIG     1      -2.335   1.225   0.170  1.00  0.00     0.621 N 
ENDBRANCH   7   9
ENDBRANCH   1   7
TORSDOF 2
