REMARK  2 active torsions:
REMARK  status: ('A' for Active; 'I' for Inactive)
REMARK       I    between atoms: C_2  and  N_3 
REMARK    1  A    between atoms: N_3  and  C_6 
REMARK    2  A    between atoms: N_3  and  N_4 
ROOT
HETATM    1  N   LIG     1       2.485  -0.385   0.679  1.00  0.00    -0.038 NA
HETATM    2  C   LIG     1       1.160  -0.643   0.211  1.00  0.00     0.353 C 
HETATM    3  N   LIG     1       0.213   0.430   0.042  1.00  0.00    -0.181 N 
HETATM    4  O   LIG     1       0.834  -1.823  -0.090  1.00  0.00    -0.249 OA
ENDROOT
BRANCH   3   5
HETATM    5  C   LIG     1      -0.829   0.338  -0.982  1.00  0.00     0.134 C 
HETATM    6  C   LIG     1      -2.101  -0.261  -0.394  1.00  0.00     0.029 C 
ENDBRANCH   3   5
BRANCH   3   7
HETATM    7  N   LIG     1       0.187   1.534   0.913  1.00  0.00    -0.007 NA
HETATM    8  O   LIG     1       0.857   1.558   1.967  1.00  0.00    -0.041 OA
ENDBRANCH   3   7
TORSDOF 2
