REMARK  1 active torsions:
REMARK  status: ('A' for Active; 'I' for Inactive)
REMARK    1  A    between atoms: C_1  and  C_4 
ROOT
HETATM    1  C   LIG     1      -0.739   0.100  -0.060  1.00  0.00     0.226 C 
HETATM    2 CL   LIG     1      -1.536   0.335   1.519  1.00  0.00    -0.080 Cl
HETATM    3 CL   LIG     1      -0.974   1.576  -1.040  1.00  0.00    -0.080 Cl
HETATM    4 CL   LIG     1      -1.557  -1.259  -0.877  1.00  0.00    -0.080 Cl
ENDROOT
BRANCH   1   5
HETATM    5  C   LIG     1       0.756  -0.216   0.137  1.00  0.00     0.201 C 
HETATM    6 CL   LIG     1       1.607   1.103   0.993  1.00  0.00    -0.093 Cl
HETATM    7 CL   LIG     1       1.586  -0.502  -1.421  1.00  0.00    -0.093 Cl
ENDBRANCH   1   5
TORSDOF 1
