REMARK  1 active torsions:
REMARK  status: ('A' for Active; 'I' for Inactive)
REMARK    1  A    between atoms: C_2  and  C_5 
ROOT
HETATM    1 CL   LIG     1      -1.689  -1.306  -0.053  1.00  0.00    -0.040 Cl
HETATM    2  C   LIG     1      -0.680   0.113   0.341  1.00  0.00     0.399 C 
HETATM    3  F   LIG     1      -1.341   1.253  -0.081  1.00  0.00    -0.179 F 
HETATM    4  F   LIG     1      -0.511   0.180   1.712  1.00  0.00    -0.179 F 
ENDROOT
BRANCH   2   5
HETATM    5  C   LIG     1       0.684   0.031  -0.350  1.00  0.00     0.399 C 
HETATM    6  F   LIG     1       0.514  -0.072  -1.719  1.00  0.00    -0.179 F 
HETATM    7  F   LIG     1       1.407   1.179  -0.077  1.00  0.00    -0.179 F 
HETATM    8 CL   LIG     1       1.616  -1.377   0.228  1.00  0.00    -0.040 Cl
ENDBRANCH   2   5
TORSDOF 1
