REMARK  1 active torsions:
REMARK  status: ('A' for Active; 'I' for Inactive)
REMARK    1  A    between atoms: C_2  and  C_5 
ROOT
HETATM    1 CL   LIG     1       1.875   0.845   0.723  1.00  0.00    -0.042 Cl
HETATM    2  C   LIG     1       0.739  -0.202  -0.174  1.00  0.00     0.384 C 
HETATM    3  F   LIG     1       1.020  -1.519   0.142  1.00  0.00    -0.181 F 
HETATM    4  F   LIG     1       0.938  -0.016  -1.531  1.00  0.00    -0.181 F 
ENDROOT
BRANCH   2   5
HETATM    5  C   LIG     1      -0.714   0.120   0.195  1.00  0.00     0.336 C 
HETATM    6  F   LIG     1      -0.896  -0.031   1.558  1.00  0.00    -0.199 F 
HETATM    7 CL   LIG     1      -1.825  -0.990  -0.652  1.00  0.00    -0.058 Cl
HETATM    8 CL   LIG     1      -1.137   1.793  -0.263  1.00  0.00    -0.058 Cl
ENDBRANCH   2   5
TORSDOF 1
