REMARK  1 active torsions:
REMARK  status: ('A' for Active; 'I' for Inactive)
REMARK    1  A    between atoms: C_2  and  C_3 
ROOT
HETATM    1  O   LIG     1      -1.137  -2.019   0.798  1.00  0.00    -0.203 OA
HETATM    2  C   LIG     1      -0.842  -0.790   0.166  1.00  0.00     0.312 C 
HETATM    3  C   LIG     1      -1.956  -0.482  -0.839  1.00  0.00     0.299 C 
HETATM    4  N   LIG     1      -2.623   0.783  -0.871  1.00  0.00    -0.153 NA
HETATM    5  C   LIG     1      -2.352   1.787   0.100  1.00  0.00     0.374 C 
HETATM    6  N   LIG     1      -1.458   1.513   1.173  1.00  0.00    -0.153 NA
HETATM    7  C   LIG     1      -0.796   0.250   1.281  1.00  0.00     0.299 C 
HETATM    8  O   LIG     1      -0.135   0.004   2.326  1.00  0.00    -0.267 OA
HETATM    9  O   LIG     1      -2.915   2.911   0.021  1.00  0.00    -0.242 OA
HETATM   10  O   LIG     1      -2.279  -1.352  -1.693  1.00  0.00    -0.267 OA
ENDROOT
BRANCH   2  11
HETATM   11  C   LIG     1       0.565  -0.852  -0.563  1.00  0.00     0.312 C 
HETATM   12  C   LIG     1       1.640  -1.386   0.388  1.00  0.00     0.299 C 
HETATM   13  N   LIG     1       2.663  -0.544   0.928  1.00  0.00    -0.153 NA
HETATM   14  O   LIG     1       1.611  -2.597   0.738  1.00  0.00    -0.267 OA
HETATM   15  C   LIG     1       2.791   0.815   0.528  1.00  0.00     0.374 C 
HETATM   16  N   LIG     1       1.940   1.339  -0.483  1.00  0.00    -0.153 NA
HETATM   17  O   LIG     1       3.668   1.548   1.057  1.00  0.00    -0.242 OA
HETATM   18  C   LIG     1       0.928   0.532  -1.091  1.00  0.00     0.299 C 
HETATM   19  O   LIG     1       0.303   0.995  -2.084  1.00  0.00    -0.267 OA
HETATM   20  O   LIG     1       0.509  -1.694  -1.695  1.00  0.00    -0.203 OA
ENDBRANCH   2  11
TORSDOF 1
