REMARK  2 active torsions:
REMARK  status: ('A' for Active; 'I' for Inactive)
REMARK    1  A    between atoms: C_21  and  C_27 
REMARK    2  A    between atoms: C_27  and  C_28 
ROOT
HETATM    1  O   LIG     1       6.171   1.938  -2.650  1.00  0.00    -0.287 OA
HETATM    2  C   LIG     1       5.301   1.494  -1.856  1.00  0.00     0.195 C 
HETATM    3  C   LIG     1       4.636   2.394  -0.913  1.00  0.00     0.038 C 
HETATM    4  C   LIG     1       3.786   1.914  -0.001  1.00  0.00    -0.017 C 
HETATM    5  C   LIG     1       3.604   0.415   0.237  1.00  0.00     0.064 C 
HETATM    6  C   LIG     1       4.561   0.055   1.399  1.00  0.00     0.011 C 
HETATM    7  C   LIG     1       4.045  -0.412  -1.005  1.00  0.00    -0.035 C 
HETATM    8  C   LIG     1       3.336  -1.729  -1.308  1.00  0.00     0.023 C 
HETATM    9  C   LIG     1       1.798  -1.539  -1.446  1.00  0.00     0.007 C 
HETATM   10  C   LIG     1       1.339  -0.228  -0.778  1.00  0.00     0.034 C 
HETATM   11  C   LIG     1       2.104   0.007   0.586  1.00  0.00     0.168 C 
HETATM   12  F   LIG     1       2.235  -1.198   1.248  1.00  0.00    -0.237 F 
HETATM   13  C   LIG     1       1.269   0.907   1.594  1.00  0.00     0.182 C 
HETATM   14  O   LIG     1       1.188   2.232   1.131  1.00  0.00    -0.221 OA
HETATM   15  C   LIG     1      -0.209   0.379   1.867  1.00  0.00     0.038 C 
HETATM   16  C   LIG     1      -0.849  -0.461   0.704  1.00  0.00     0.034 C 
HETATM   17  C   LIG     1      -0.598  -1.980   0.977  1.00  0.00     0.003 C 
HETATM   18  C   LIG     1      -0.175   0.014  -0.621  1.00  0.00     0.008 C 
HETATM   19  C   LIG     1      -1.255   0.011  -1.729  1.00  0.00     0.033 C 
HETATM   20  C   LIG     1      -2.370   0.607  -0.854  1.00  0.00     0.149 C 
HETATM   21  C   LIG     1      -2.413  -0.237   0.377  1.00  0.00     0.173 C 
HETATM   22  O   LIG     1      -3.245   0.576   1.160  1.00  0.00    -0.330 OA
HETATM   23  C   LIG     1      -4.184   1.106   0.186  1.00  0.00     0.188 C 
HETATM   24  C   LIG     1      -4.309   2.628   0.397  1.00  0.00     0.061 C 
HETATM   25  C   LIG     1      -5.578   0.481   0.370  1.00  0.00     0.061 C 
HETATM   26  O   LIG     1      -3.704   0.826  -1.146  1.00  0.00    -0.334 OA
HETATM   27  C   LIG     1       4.896   0.089  -1.914  1.00  0.00     0.034 C 
ENDROOT
BRANCH  21  28
HETATM   28  C   LIG     1      -3.186  -1.574   0.157  1.00  0.00     0.210 C 
HETATM   29  O   LIG     1      -3.369  -2.017  -0.968  1.00  0.00    -0.291 OA
BRANCH  28  30
HETATM   30  C   LIG     1      -3.788  -2.321   1.321  1.00  0.00     0.249 C 
HETATM   31  O   LIG     1      -3.323  -3.642   1.328  1.00  0.00    -0.212 OA
ENDBRANCH  28  30
ENDBRANCH  21  28
TORSDOF 2
