REMARK  0 active torsions:
REMARK  status: ('A' for Active; 'I' for Inactive)
ROOT
HETATM    1  O   LIG     1      -2.362  -1.233  -1.177  1.00  0.00    -0.296 OA
HETATM    2  C   LIG     1      -1.415  -0.509  -0.912  1.00  0.00     0.150 C 
HETATM    3  C   LIG     1      -0.905   0.599  -1.782  1.00  0.00     0.065 C 
HETATM    4  C   LIG     1       0.186   1.181  -0.840  1.00  0.00     0.008 C 
HETATM    5  C   LIG     1      -0.568   1.910   0.306  1.00  0.00     0.001 C 
HETATM    6  C   LIG     1      -1.142   0.740   1.144  1.00  0.00     0.007 C 
HETATM    7  C   LIG     1       0.757  -0.070  -0.130  1.00  0.00     0.007 C 
HETATM    8  C   LIG     1       1.804   0.256   0.977  1.00  0.00     0.000 C 
HETATM    9  C   LIG     1       1.442  -1.082  -1.100  1.00  0.00     0.000 C 
HETATM   10  C   LIG     1      -0.634  -0.506   0.379  1.00  0.00     0.051 C 
HETATM   11  C   LIG     1      -0.693  -1.815   1.174  1.00  0.00     0.007 C 
ENDROOT
TORSDOF 0
