REMARK  2 active torsions:
REMARK  status: ('A' for Active; 'I' for Inactive)
REMARK    1  A    between atoms: C_6  and  C_10 
REMARK    2  A    between atoms: C_6  and  C_7 
ROOT
HETATM    1  O   LIG     1      -0.732   4.173  -0.164  1.00  0.00    -0.242 OA
HETATM    2  C   LIG     1      -0.394   2.965  -0.279  1.00  0.00     0.373 C 
HETATM    3  N   LIG     1       0.484   2.377   0.671  1.00  0.00    -0.155 NA
HETATM    4  N   LIG     1      -0.874   2.191  -1.369  1.00  0.00    -0.155 NA
HETATM    5  C   LIG     1      -0.561   0.801  -1.492  1.00  0.00     0.267 C 
HETATM    6  C   LIG     1       0.215   0.030  -0.409  1.00  0.00     0.146 C 
HETATM    7  C   LIG     1       0.884   1.008   0.569  1.00  0.00     0.267 C 
HETATM    8  O   LIG     1       1.794   0.603   1.341  1.00  0.00    -0.270 OA
HETATM    9  O   LIG     1      -1.019   0.177  -2.489  1.00  0.00    -0.270 OA
ENDROOT
BRANCH   6  10
HETATM   10  C   LIG     1       1.323  -0.761  -1.201  1.00  0.00     0.018 C 
HETATM   11  C   LIG     1       2.109  -1.850  -0.463  1.00  0.00     0.001 C 
ENDBRANCH   6  10
BRANCH   6  12
HETATM   12  C   LIG     1      -0.793  -0.932   0.357  1.00  0.00     0.017 C 
HETATM   13  C   LIG     1      -2.197  -0.314   0.554  1.00  0.00     0.001 C 
HETATM   14  C   LIG     1      -0.312  -1.410   1.748  1.00  0.00     0.001 C 
ENDBRANCH   6  12
TORSDOF 2
