REMARK  4 active torsions:
REMARK  status: ('A' for Active; 'I' for Inactive)
REMARK    1  A    between atoms: C_6  and  C_12 
REMARK    2  A    between atoms: C_6  and  C_7 
REMARK    3  A    between atoms: C_7  and  C_9 
REMARK    4  A    between atoms: C_9  and  C_10 
ROOT
HETATM    1  S   LIG     1      -3.771   3.030   1.455  1.00  0.00    -0.037 SA
HETATM    2  C   LIG     1      -2.768   1.912   0.801  1.00  0.00     0.226 C 
HETATM    3  N   LIG     1      -1.956   2.248  -0.317  1.00  0.00    -0.182 NA
HETATM    4  N   LIG     1      -2.689   0.609   1.365  1.00  0.00    -0.182 NA
HETATM    5  C   LIG     1      -1.760  -0.358   0.871  1.00  0.00     0.265 C 
HETATM    6  C   LIG     1      -0.986  -0.159  -0.440  1.00  0.00     0.146 C 
HETATM    7  C   LIG     1      -1.139   1.272  -0.968  1.00  0.00     0.265 C 
HETATM    8  O   LIG     1      -0.561   1.604  -2.039  1.00  0.00    -0.270 OA
HETATM    9  O   LIG     1      -1.584  -1.410   1.544  1.00  0.00    -0.270 OA
ENDROOT
BRANCH   6  10
HETATM   10  C   LIG     1      -1.633  -1.095  -1.515  1.00  0.00     0.018 C 
HETATM   11  C   LIG     1      -1.488  -2.603  -1.274  1.00  0.00     0.001 C 
ENDBRANCH   6  10
BRANCH   6  12
HETATM   12  C   LIG     1       0.546  -0.470  -0.169  1.00  0.00     0.017 C 
HETATM   13  C   LIG     1       1.418  -0.549  -1.444  1.00  0.00     0.001 C 
BRANCH  12  14
HETATM   14  C   LIG     1       1.167   0.538   0.845  1.00  0.00     0.001 C 
BRANCH  14  15
HETATM   15  C   LIG     1       2.546   0.107   1.392  1.00  0.00     0.000 C 
HETATM   16  C   LIG     1       3.696   0.895   0.764  1.00  0.00     0.000 C 
ENDBRANCH  14  15
ENDBRANCH  12  14
ENDBRANCH   6  12
TORSDOF 4
