REMARK  4 active torsions:
REMARK  status: ('A' for Active; 'I' for Inactive)
REMARK    1  A    between atoms: C_2  and  C_14 
REMARK    2  A    between atoms: C_2  and  C_3 
REMARK    3  A    between atoms: C_3  and  C_12 
REMARK    4  A    between atoms: C_14  and  C_15 
ROOT
HETATM    1  C   LIG     1      -1.059   0.082   0.128  1.00  0.00     0.146 A 
HETATM    2  C   LIG     1      -1.256  -1.241   0.882  1.00  0.00     0.267 A 
HETATM    3  N   LIG     1      -2.160  -2.254   0.433  1.00  0.00    -0.155 NA
HETATM    4  C   LIG     1      -3.030  -2.039  -0.669  1.00  0.00     0.373 A 
HETATM    5  O   LIG     1      -3.852  -2.932  -1.006  1.00  0.00    -0.242 OA
HETATM    6  O   LIG     1      -0.618  -1.448   1.950  1.00  0.00    -0.270 OA
HETATM    7  C   LIG     1      -2.003   0.189  -1.079  1.00  0.00     0.267 A 
HETATM    8  N   LIG     1      -2.970  -0.817  -1.390  1.00  0.00    -0.155 NA
HETATM    9  O   LIG     1      -1.911   1.180  -1.853  1.00  0.00    -0.270 OA
ENDROOT
BRANCH   1  10
HETATM   10  C   LIG     1       0.433   0.177  -0.401  1.00  0.00     0.017 C 
HETATM   11  C   LIG     1       0.778  -1.006  -1.334  1.00  0.00     0.001 C 
BRANCH  10  12
HETATM   12  C   LIG     1       1.513   0.308   0.715  1.00  0.00     0.001 C 
BRANCH  12  13
HETATM   13  C   LIG     1       2.905   0.721   0.181  1.00  0.00     0.000 C 
HETATM   14  C   LIG     1       3.901  -0.440   0.186  1.00  0.00     0.000 C 
ENDBRANCH  12  13
ENDBRANCH  10  12
ENDBRANCH   1  10
BRANCH   1  15
HETATM   15  C   LIG     1      -1.441   1.224   1.132  1.00  0.00     0.018 C 
HETATM   16  C   LIG     1      -1.169   2.662   0.669  1.00  0.00     0.001 C 
ENDBRANCH   1  15
TORSDOF 4
