REMARK  3 active torsions:
REMARK  status: ('A' for Active; 'I' for Inactive)
REMARK    1  A    between atoms: C_2  and  C_3 
REMARK    2  A    between atoms: C_2  and  C_9 
REMARK    3  A    between atoms: C_2  and  C_15 
ROOT
HETATM    1  O   LIG     1       0.027   1.169  -2.053  1.00  0.00    -0.206 OA
HETATM    2  C   LIG     1      -0.049   0.942  -0.663  1.00  0.00     0.241 C 
ENDROOT
BRANCH   2   3
HETATM    3  C   LIG     1       1.273   0.293  -0.217  1.00  0.00     0.019 A 
HETATM    4  C   LIG     1       2.351   1.063   0.277  1.00  0.00    -0.001 A 
HETATM    5  C   LIG     1       3.562   0.456   0.625  1.00  0.00    -0.000 A 
HETATM    6  C   LIG     1       3.731  -0.919   0.459  1.00  0.00    -0.000 A 
HETATM    7  C   LIG     1       2.695  -1.689  -0.069  1.00  0.00    -0.000 A 
HETATM    8  C   LIG     1       1.482  -1.089  -0.419  1.00  0.00    -0.001 A 
ENDBRANCH   2   3
BRANCH   2   9
HETATM    9  C   LIG     1      -1.264   0.067  -0.324  1.00  0.00     0.019 A 
HETATM   10  C   LIG     1      -1.376  -0.539   0.946  1.00  0.00    -0.001 A 
HETATM   11  C   LIG     1      -2.495  -1.308   1.274  1.00  0.00    -0.000 A 
HETATM   12  C   LIG     1      -3.528  -1.471   0.351  1.00  0.00    -0.000 A 
HETATM   13  C   LIG     1      -3.448  -0.857  -0.900  1.00  0.00    -0.000 A 
HETATM   14  C   LIG     1      -2.331  -0.086  -1.235  1.00  0.00    -0.001 A 
ENDBRANCH   2   9
BRANCH   2  15
HETATM   15  C   LIG     1      -0.279   2.273   0.022  1.00  0.00     0.222 C 
HETATM   16  O   LIG     1      -0.335   2.342   1.412  1.00  0.00    -0.645 OA
HETATM   17  O   LIG     1      -0.425   3.326  -0.657  1.00  0.00    -0.645 OA
ENDBRANCH   2  15
TORSDOF 3
