REMARK  3 active torsions:
REMARK  status: ('A' for Active; 'I' for Inactive)
REMARK    1  A    between atoms: C_2  and  C_3 
REMARK    2  A    between atoms: C_3  and  O_5 
REMARK    3  A    between atoms: O_5  and  C_6 
ROOT
HETATM    1  C   LIG     1       0.664   0.439  -0.399  1.00  0.00     0.105 A 
HETATM    2  C   LIG     1       1.336  -0.350   0.558  1.00  0.00     0.025 A 
HETATM    3  C   LIG     1       2.717  -0.545   0.469  1.00  0.00     0.002 A 
HETATM    4  C   LIG     1       3.443   0.043  -0.569  1.00  0.00     0.001 A 
HETATM    5  C   LIG     1       2.789   0.831  -1.519  1.00  0.00     0.013 A 
HETATM    6  C   LIG     1       1.406   1.030  -1.436  1.00  0.00     0.080 A 
HETATM    7 CL   LIG     1       0.609   2.025  -2.646  1.00  0.00    -0.080 Cl
ENDROOT
BRANCH   1   8
HETATM    8  O   LIG     1      -0.722   0.668  -0.352  1.00  0.00    -0.322 OA
BRANCH   8   9
HETATM    9  C   LIG     1      -1.649   0.032   0.531  1.00  0.00     0.208 C 
HETATM   10  C   LIG     1      -1.876  -1.423   0.114  1.00  0.00     0.044 C 
BRANCH   9  11
HETATM   11  C   LIG     1      -2.955   0.774   0.489  1.00  0.00     0.214 C 
HETATM   12  O   LIG     1      -3.762   0.850   1.621  1.00  0.00    -0.646 OA
HETATM   13  O   LIG     1      -3.354   1.292  -0.588  1.00  0.00    -0.646 OA
ENDBRANCH   9  11
ENDBRANCH   8   9
ENDBRANCH   1   8
TORSDOF 3
