REMARK  4 active torsions:
REMARK  status: ('A' for Active; 'I' for Inactive)
REMARK    1  A    between atoms: C_2  and  C_3 
REMARK    2  A    between atoms: C_2  and  C_10 
REMARK    3  A    between atoms: C_2  and  C_17 
REMARK    4  A    between atoms: C_17  and  N_18 
ROOT
HETATM    1  O   LIG     1      -0.386  -1.213   1.360  1.00  0.00    -0.215 OA
HETATM    2  C   LIG     1      -0.059  -0.487   0.191  1.00  0.00     0.189 C 
ENDROOT
BRANCH   2   3
HETATM    3  C   LIG     1      -0.451   0.999   0.395  1.00  0.00     0.011 A 
HETATM    4  C   LIG     1       0.192   1.734   1.418  1.00  0.00     0.001 A 
HETATM    5  C   LIG     1      -0.103   3.082   1.636  1.00  0.00     0.029 A 
HETATM    6  C   LIG     1      -1.036   3.733   0.831  1.00  0.00     0.140 A 
HETATM    7  C   LIG     1      -1.668   3.039  -0.200  1.00  0.00     0.029 A 
HETATM    8  F   LIG     1      -1.320   5.042   1.042  1.00  0.00    -0.204 F 
HETATM    9  C   LIG     1      -1.377   1.690  -0.425  1.00  0.00     0.001 A 
ENDBRANCH   2   3
BRANCH   2  10
HETATM   10  C   LIG     1       1.453  -0.559  -0.092  1.00  0.00     0.038 A 
HETATM   11  C   LIG     1       2.303  -1.404   0.658  1.00  0.00     0.001 A 
HETATM   12  C   LIG     1       3.671  -1.468   0.382  1.00  0.00    -0.000 A 
HETATM   13  C   LIG     1       4.215  -0.707  -0.652  1.00  0.00     0.002 A 
HETATM   14  C   LIG     1       3.391   0.116  -1.419  1.00  0.00     0.029 A 
HETATM   15  C   LIG     1       2.021   0.188  -1.152  1.00  0.00     0.139 A 
HETATM   16  F   LIG     1       1.250   0.986  -1.933  1.00  0.00    -0.204 F 
ENDBRANCH   2  10
BRANCH   2  17
HETATM   17  C   LIG     1      -0.784  -1.205  -0.994  1.00  0.00     0.168 C 
BRANCH  17  18
HETATM   18  N   LIG     1      -2.073  -1.791  -0.605  1.00  0.00    -0.227 N 
HETATM   19  C   LIG     1      -3.167  -1.173  -0.124  1.00  0.00     0.197 A 
HETATM   20  N   LIG     1      -4.160  -2.052   0.114  1.00  0.00    -0.201 NA
HETATM   21  C   LIG     1      -3.604  -3.226  -0.251  1.00  0.00     0.221 A 
HETATM   22  N   LIG     1      -2.340  -3.082  -0.688  1.00  0.00    -0.145 NA
ENDBRANCH  17  18
ENDBRANCH   2  17
TORSDOF 4
