REMARK  3 active torsions:
REMARK  status: ('A' for Active; 'I' for Inactive)
REMARK    1  A    between atoms: C_6  and  C_10 
REMARK    2  A    between atoms: C_6  and  C_7 
REMARK    3  A    between atoms: C_10  and  C_11 
ROOT
HETATM    1  O   LIG     1      -2.413   3.507   1.034  1.00  0.00    -0.242 OA
HETATM    2  C   LIG     1      -1.686   2.543   0.675  1.00  0.00     0.373 C 
HETATM    3  N   LIG     1      -0.437   2.315   1.315  1.00  0.00    -0.155 NA
HETATM    4  N   LIG     1      -2.108   1.687  -0.379  1.00  0.00    -0.155 NA
HETATM    5  C   LIG     1      -1.284   0.614  -0.839  1.00  0.00     0.268 C 
HETATM    6  C   LIG     1      -0.031   0.162  -0.081  1.00  0.00     0.150 C 
HETATM    7  C   LIG     1       0.370   1.178   0.997  1.00  0.00     0.268 C 
HETATM    8  O   LIG     1       1.421   0.989   1.668  1.00  0.00    -0.270 OA
HETATM    9  O   LIG     1      -1.624   0.015  -1.896  1.00  0.00    -0.270 OA
ENDROOT
BRANCH   6  10
HETATM   10  C   LIG     1       1.133   0.091  -1.125  1.00  0.00     0.044 C 
BRANCH  10  11
HETATM   11  C   LIG     1       2.426  -0.481  -0.588  1.00  0.00    -0.025 C 
HETATM   12  C   LIG     1       3.552   0.237  -0.543  1.00  0.00    -0.005 C 
ENDBRANCH  10  11
ENDBRANCH   6  10
BRANCH   6  13
HETATM   13  C   LIG     1      -0.303  -1.224   0.628  1.00  0.00     0.017 C 
HETATM   14  C   LIG     1      -0.539  -2.403  -0.338  1.00  0.00     0.001 C 
HETATM   15  C   LIG     1      -1.476  -1.152   1.627  1.00  0.00     0.001 C 
ENDBRANCH   6  13
TORSDOF 3
