REMARK  4 active torsions:
REMARK  status: ('A' for Active; 'I' for Inactive)
REMARK    1  A    between atoms: C_6  and  C_11 
REMARK    2  A    between atoms: C_6  and  C_7 
REMARK    3  A    between atoms: C_7  and  C_8 
REMARK    4  A    between atoms: C_8  and  C_9 
ROOT
HETATM    1  O   LIG     1      -3.897   2.454  -0.938  1.00  0.00    -0.242 OA
HETATM    2  C   LIG     1      -2.933   1.706  -0.624  1.00  0.00     0.373 C 
HETATM    3  N   LIG     1      -2.316   0.887  -1.611  1.00  0.00    -0.155 NA
HETATM    4  N   LIG     1      -2.446   1.696   0.713  1.00  0.00    -0.155 NA
HETATM    5  C   LIG     1      -1.379   0.828   1.107  1.00  0.00     0.267 C 
HETATM    6  C   LIG     1      -0.826  -0.246   0.172  1.00  0.00     0.146 C 
HETATM    7  C   LIG     1      -1.235   0.013  -1.278  1.00  0.00     0.267 C 
HETATM    8  O   LIG     1      -0.626  -0.575  -2.214  1.00  0.00    -0.270 OA
HETATM    9  O   LIG     1      -0.940   0.910   2.287  1.00  0.00    -0.270 OA
ENDROOT
BRANCH   6  10
HETATM   10  C   LIG     1      -1.439  -1.596   0.654  1.00  0.00     0.018 C 
HETATM   11  C   LIG     1      -1.020  -2.845  -0.132  1.00  0.00     0.001 C 
ENDBRANCH   6  10
BRANCH   6  12
HETATM   12  C   LIG     1       0.732  -0.272   0.287  1.00  0.00     0.018 C 
BRANCH  12  13
HETATM   13  C   LIG     1       1.404   1.068  -0.084  1.00  0.00     0.001 C 
BRANCH  13  14
HETATM   14  C   LIG     1       2.927   1.040   0.122  1.00  0.00     0.000 C 
HETATM   15  C   LIG     1       3.650   0.180  -0.914  1.00  0.00     0.000 C 
ENDBRANCH  13  14
ENDBRANCH  12  13
ENDBRANCH   6  12
TORSDOF 4
