REMARK  5 active torsions:
REMARK  status: ('A' for Active; 'I' for Inactive)
REMARK    1  A    between atoms: C_6  and  C_12 
REMARK    2  A    between atoms: C_6  and  C_7 
REMARK    3  A    between atoms: C_7  and  C_9 
REMARK    4  A    between atoms: C_9  and  C_10 
REMARK    5  A    between atoms: C_12  and  C_13 
ROOT
HETATM    1  S   LIG     1      -2.349   4.023   2.079  1.00  0.00    -0.037 SA
HETATM    2  C   LIG     1      -1.836   2.661   1.330  1.00  0.00     0.226 C 
HETATM    3  N   LIG     1      -2.150   2.441  -0.041  1.00  0.00    -0.182 NA
HETATM    4  N   LIG     1      -1.105   1.679   2.058  1.00  0.00    -0.182 NA
HETATM    5  C   LIG     1      -0.679   0.462   1.442  1.00  0.00     0.266 C 
HETATM    6  C   LIG     1      -0.775   0.241  -0.069  1.00  0.00     0.150 C 
HETATM    7  C   LIG     1      -1.656   1.297  -0.744  1.00  0.00     0.266 C 
HETATM    8  O   LIG     1      -1.935   1.176  -1.969  1.00  0.00    -0.270 OA
HETATM    9  O   LIG     1      -0.192  -0.442   2.175  1.00  0.00    -0.270 OA
ENDROOT
BRANCH   6  10
HETATM   10  C   LIG     1      -1.435  -1.154  -0.321  1.00  0.00     0.044 C 
BRANCH  10  11
HETATM   11  C   LIG     1      -2.876  -1.214   0.140  1.00  0.00    -0.025 C 
HETATM   12  C   LIG     1      -3.268  -2.003   1.145  1.00  0.00    -0.005 C 
ENDBRANCH  10  11
ENDBRANCH   6  10
BRANCH   6  13
HETATM   13  C   LIG     1       0.662   0.332  -0.727  1.00  0.00     0.017 C 
HETATM   14  C   LIG     1       1.326   1.703  -0.449  1.00  0.00     0.001 C 
BRANCH  13  15
HETATM   15  C   LIG     1       1.627  -0.826  -0.332  1.00  0.00     0.001 C 
BRANCH  15  16
HETATM   16  C   LIG     1       2.966  -0.788  -1.090  1.00  0.00     0.000 C 
HETATM   17  C   LIG     1       3.777  -2.058  -0.846  1.00  0.00     0.000 C 
ENDBRANCH  15  16
ENDBRANCH  13  15
ENDBRANCH   6  13
TORSDOF 5
