REMARK  2 active torsions:
REMARK  status: ('A' for Active; 'I' for Inactive)
REMARK    1  A    between atoms: C_2  and  C_3 
REMARK    2  A    between atoms: C_3  and  C_8 
ROOT
HETATM    1  C   LIG     1      -0.735   0.520   0.155  1.00  0.00     0.092 C 
HETATM    2  C   LIG     1      -1.415  -0.175   1.370  1.00  0.00     0.023 C 
HETATM    3  C   LIG     1      -1.607  -1.687   1.165  1.00  0.00     0.091 C 
HETATM    4  C   LIG     1      -2.243  -1.990  -0.160  1.00  0.00     0.258 C 
HETATM    5  O   LIG     1      -2.703  -3.142  -0.378  1.00  0.00    -0.270 OA
HETATM    6  C   LIG     1      -1.657   0.272  -1.039  1.00  0.00     0.261 C 
HETATM    7  N   LIG     1      -2.317  -0.992  -1.183  1.00  0.00    -0.177 NA
HETATM    8  O   LIG     1      -1.833   1.154  -1.922  1.00  0.00    -0.270 OA
ENDROOT
BRANCH   1   9
HETATM    9  C   LIG     1      -0.641   2.050   0.467  1.00  0.00     0.013 C 
HETATM   10  C   LIG     1       0.284   2.847  -0.465  1.00  0.00     0.001 C 
ENDBRANCH   1   9
BRANCH   1  11
HETATM   11  C   LIG     1       0.674  -0.072  -0.061  1.00  0.00    -0.014 A 
HETATM   12  C   LIG     1       1.629  -0.004   0.979  1.00  0.00    -0.004 A 
HETATM   13  C   LIG     1       2.913  -0.528   0.811  1.00  0.00    -0.000 A 
HETATM   14  C   LIG     1       3.273  -1.127  -0.395  1.00  0.00    -0.000 A 
HETATM   15  C   LIG     1       2.352  -1.197  -1.440  1.00  0.00    -0.000 A 
HETATM   16  C   LIG     1       1.066  -0.674  -1.281  1.00  0.00    -0.004 A 
ENDBRANCH   1  11
TORSDOF 2
