REMARK  0 active torsions:
REMARK  status: ('A' for Active; 'I' for Inactive)
ROOT
HETATM    1 CL   LIG     1      -2.059   0.838  -1.350  1.00  0.00    -0.089 Cl
HETATM    2  C   LIG     1      -1.071   0.377   0.059  1.00  0.00     0.191 A 
HETATM    3  C   LIG     1       0.212   1.148   0.093  1.00  0.00     0.079 A 
HETATM    4 CL   LIG     1       0.328   2.895   0.240  1.00  0.00    -0.083 Cl
HETATM    5  C   LIG     1       1.249   0.328  -0.003  1.00  0.00     0.078 A 
HETATM    6 CL   LIG     1       2.937   0.809  -0.004  1.00  0.00    -0.081 Cl
HETATM    7  C   LIG     1       0.763  -1.036  -0.108  1.00  0.00     0.078 A 
HETATM    8 CL   LIG     1       1.769  -2.467  -0.257  1.00  0.00    -0.081 Cl
HETATM    9  C   LIG     1      -0.562  -1.024  -0.074  1.00  0.00     0.079 A 
HETATM   10 CL   LIG     1      -1.580  -2.454  -0.171  1.00  0.00    -0.083 Cl
HETATM   11 CL   LIG     1      -1.986   0.587   1.575  1.00  0.00    -0.089 Cl
ENDROOT
TORSDOF 0
