REMARK  3 active torsions:
REMARK  status: ('A' for Active; 'I' for Inactive)
REMARK    1  A    between atoms: C_2  and  C_3 
REMARK    2  A    between atoms: C_2  and  C_5 
REMARK    3  A    between atoms: C_2  and  C_7 
REMARK       I    between atoms: C_7  and  N_8 
REMARK       I    between atoms: N_8  and  C_9 
ROOT
HETATM    1 BR   LIG     1      -0.352  -0.552  -2.557  1.00  0.00    -0.073 Br
HETATM    2  C   LIG     1      -0.715   0.009  -0.717  1.00  0.00     0.121 C 
ENDROOT
BRANCH   2   3
HETATM    3  C   LIG     1      -2.103  -0.551  -0.280  1.00  0.00     0.020 C 
HETATM    4  C   LIG     1      -2.271  -2.064  -0.471  1.00  0.00     0.001 C 
ENDBRANCH   2   3
BRANCH   2   5
HETATM    5  C   LIG     1      -0.745   1.561  -0.727  1.00  0.00     0.020 C 
HETATM    6  C   LIG     1      -0.967   2.202   0.648  1.00  0.00     0.001 C 
ENDBRANCH   2   5
BRANCH   2   7
HETATM    7  C   LIG     1       0.420  -0.482   0.173  1.00  0.00     0.268 C 
HETATM    8  N   LIG     1       1.788  -0.196  -0.176  1.00  0.00    -0.160 NA
HETATM    9  C   LIG     1       2.921  -0.616   0.601  1.00  0.00     0.357 C 
HETATM   10  N   LIG     1       4.239  -0.269   0.177  1.00  0.00    -0.038 NA
HETATM   11  O   LIG     1       2.769  -1.289   1.655  1.00  0.00    -0.248 OA
HETATM   12  O   LIG     1       0.163  -1.107   1.239  1.00  0.00    -0.269 OA
ENDBRANCH   2   7
TORSDOF 3
