REMARK  2 active torsions:
REMARK  status: ('A' for Active; 'I' for Inactive)
REMARK    1  A    between atoms: C_2  and  C_6 
REMARK    2  A    between atoms: C_2  and  C_3 
ROOT
HETATM    1  C   LIG     1       0.218   1.275   1.160  1.00  0.00     0.033 C 
HETATM    2  C   LIG     1       0.005   0.809  -0.295  1.00  0.00     0.127 C 
HETATM    3  O   LIG     1       0.079   1.973  -1.088  1.00  0.00    -0.226 OA
ENDROOT
BRANCH   2   4
HETATM    4  C   LIG     1       1.129  -0.173  -0.771  1.00  0.00     0.030 C 
HETATM    5  C   LIG     1       1.703  -1.122   0.291  1.00  0.00     0.003 C 
ENDBRANCH   2   4
BRANCH   2   6
HETATM    6  C   LIG     1      -1.426   0.214  -0.475  1.00  0.00     0.030 C 
HETATM    7  C   LIG     1      -1.696  -1.114   0.235  1.00  0.00     0.003 C 
ENDBRANCH   2   6
TORSDOF 2
