REMARK  5 active torsions:
REMARK  status: ('A' for Active; 'I' for Inactive)
REMARK    1  A    between atoms: C_2  and  C_10 
REMARK    2  A    between atoms: C_2  and  C_6 
REMARK    3  A    between atoms: C_2  and  C_3 
REMARK    4  A    between atoms: C_6  and  C_7 
REMARK    5  A    between atoms: C_10  and  C_11 
ROOT
HETATM    1  O   LIG     1       0.268  -0.390   1.512  1.00  0.00    -0.214 OA
HETATM    2  C   LIG     1       0.106   0.345   0.318  1.00  0.00     0.224 C 
ENDROOT
BRANCH   2   3
HETATM    3  C   LIG     1      -0.702  -0.472  -0.739  1.00  0.00     0.139 C 
BRANCH   3   4
HETATM    4  C   LIG     1      -2.059  -0.936  -0.279  1.00  0.00     0.188 C 
HETATM    5  O   LIG     1      -2.868  -1.639  -1.167  1.00  0.00    -0.647 OA
HETATM    6  O   LIG     1      -2.472  -0.709   0.891  1.00  0.00    -0.647 OA
ENDBRANCH   3   4
ENDBRANCH   2   3
BRANCH   2   7
HETATM    7  C   LIG     1       1.500   0.740  -0.242  1.00  0.00     0.139 C 
BRANCH   7   8
HETATM    8  C   LIG     1       2.380  -0.435  -0.559  1.00  0.00     0.188 C 
HETATM    9  O   LIG     1       2.646  -0.761  -1.886  1.00  0.00    -0.647 OA
HETATM   10  O   LIG     1       2.899  -1.110   0.369  1.00  0.00    -0.647 OA
ENDBRANCH   7   8
ENDBRANCH   2   7
BRANCH   2  11
HETATM   11  C   LIG     1      -0.638   1.622   0.644  1.00  0.00     0.215 C 
HETATM   12  O   LIG     1      -1.022   1.895   1.955  1.00  0.00    -0.646 OA
HETATM   13  O   LIG     1      -0.916   2.448  -0.268  1.00  0.00    -0.646 OA
ENDBRANCH   2  11
TORSDOF 5
