REMARK  0 active torsions:
REMARK  status: ('A' for Active; 'I' for Inactive)
ROOT
HETATM    1  C   LIG     1       0.347   2.574  -0.089  1.00  0.00     0.031 C 
HETATM    2  C   LIG     1       0.159   1.069   0.000  1.00  0.00    -0.022 A 
HETATM    3  C   LIG     1      -1.156   0.525  -0.086  1.00  0.00    -0.004 A 
HETATM    4  C   LIG     1      -2.311   1.344  -0.082  1.00  0.00    -0.000 A 
HETATM    5  C   LIG     1      -3.586   0.785  -0.192  1.00  0.00    -0.000 A 
HETATM    6  C   LIG     1      -3.741  -0.594  -0.304  1.00  0.00    -0.000 A 
HETATM    7  C   LIG     1      -2.623  -1.425  -0.296  1.00  0.00    -0.000 A 
HETATM    8  C   LIG     1      -1.333  -0.880  -0.180  1.00  0.00    -0.000 A 
HETATM    9  C   LIG     1      -0.227  -1.730  -0.155  1.00  0.00    -0.000 A 
HETATM   10  C   LIG     1       1.062  -1.220   0.012  1.00  0.00    -0.000 A 
HETATM   11  C   LIG     1       1.271   0.182   0.122  1.00  0.00    -0.004 A 
HETATM   12  C   LIG     1       2.587   0.637   0.380  1.00  0.00    -0.000 A 
HETATM   13  C   LIG     1       3.655  -0.261   0.459  1.00  0.00    -0.000 A 
HETATM   14  C   LIG     1       3.438  -1.627   0.302  1.00  0.00    -0.000 A 
HETATM   15  C   LIG     1       2.148  -2.107   0.087  1.00  0.00    -0.000 A 
ENDROOT
TORSDOF 0
