REMARK  0 active torsions:
REMARK  status: ('A' for Active; 'I' for Inactive)
ROOT
HETATM    1  C   LIG     1      -2.198  -0.940  -0.642  1.00  0.00     0.001 C 
HETATM    2  C   LIG     1      -1.008  -0.103  -0.132  1.00  0.00     0.011 C 
HETATM    3  C   LIG     1       0.263  -0.995  -0.092  1.00  0.00     0.022 C 
HETATM    4  C   LIG     1       1.534  -0.211   0.166  1.00  0.00    -0.041 C 
HETATM    5  C   LIG     1       2.723  -0.907   0.765  1.00  0.00     0.026 C 
HETATM    6  C   LIG     1       1.639   1.079  -0.186  1.00  0.00     0.029 C 
HETATM    7  C   LIG     1       0.509   1.802  -0.791  1.00  0.00     0.172 C 
HETATM    8  O   LIG     1       0.639   3.016  -1.100  1.00  0.00    -0.291 OA
HETATM    9  C   LIG     1      -0.777   1.088  -1.096  1.00  0.00     0.070 C 
HETATM   10  C   LIG     1      -1.346   0.412   1.287  1.00  0.00     0.001 C 
ENDROOT
TORSDOF 0
