REMARK  1 active torsions:
REMARK  status: ('A' for Active; 'I' for Inactive)
REMARK    1  A    between atoms: C_2  and  C_4 
ROOT
HETATM    1  C   LIG     1      -1.109   0.191   0.664  1.00  0.00     0.013 C 
HETATM    2  C   LIG     1      -0.172   0.243  -0.543  1.00  0.00     0.069 C 
HETATM    3 BR   LIG     1       0.299   2.086  -0.948  1.00  0.00    -0.081 Br
ENDROOT
BRANCH   2   4
HETATM    4  C   LIG     1       1.083  -0.617  -0.344  1.00  0.00     0.079 C 
HETATM    5 BR   LIG     1       2.188  -0.029   1.146  1.00  0.00    -0.080 Br
ENDBRANCH   2   4
TORSDOF 1
