REMARK  1 active torsions:
REMARK  status: ('A' for Active; 'I' for Inactive)
REMARK    1  A    between atoms: C_2  and  C_3 
ROOT
HETATM    1  C   LIG     1      -1.744  -0.371  -0.613  1.00  0.00    -0.004 C 
HETATM    2  C   LIG     1      -0.505  -0.018  -0.256  1.00  0.00    -0.022 C 
HETATM    3  C   LIG     1      -0.211   1.416   0.105  1.00  0.00     0.031 C 
ENDROOT
BRANCH   2   4
HETATM    4  C   LIG     1       0.557  -1.054  -0.223  1.00  0.00    -0.004 C 
HETATM    5  C   LIG     1       1.820  -0.800   0.120  1.00  0.00    -0.000 C 
ENDBRANCH   2   4
TORSDOF 1
