REMARK  4 active torsions:
REMARK  status: ('A' for Active; 'I' for Inactive)
REMARK    1  A    between atoms: C_4  and  C_5 
REMARK    2  A    between atoms: C_5  and  C_6 
REMARK    3  A    between atoms: C_6  and  C_7 
REMARK    4  A    between atoms: C_7  and  C_10 
ROOT
HETATM    1  C   LIG     1      -0.842  -0.405   0.419  1.00  0.00     0.039 C 
ENDROOT
BRANCH   1   2
HETATM    2  C   LIG     1       0.512   0.154  -0.055  1.00  0.00     0.028 C 
BRANCH   2   3
HETATM    3  C   LIG     1       1.613  -0.184   0.922  1.00  0.00    -0.035 C 
HETATM    4  C   LIG     1       2.899   0.183   0.739  1.00  0.00    -0.048 C 
HETATM    5  C   LIG     1       3.918  -0.206   1.778  1.00  0.00     0.026 C 
HETATM    6  C   LIG     1       3.331   0.968  -0.477  1.00  0.00     0.026 C 
ENDBRANCH   2   3
ENDBRANCH   1   2
BRANCH   1   7
HETATM    7  C   LIG     1      -1.999  -0.207  -0.602  1.00  0.00     0.146 C 
HETATM    8  C   LIG     1      -2.311   1.290  -0.783  1.00  0.00     0.038 C 
HETATM    9  O   LIG     1      -1.638  -0.745  -1.853  1.00  0.00    -0.222 OA
BRANCH   7  10
HETATM   10  C   LIG     1      -3.245  -0.911  -0.082  1.00  0.00     0.003 C 
HETATM   11  C   LIG     1      -4.346  -1.060  -0.828  1.00  0.00    -0.002 C 
ENDBRANCH   7  10
ENDBRANCH   1   7
TORSDOF 4
