REMARK  1 active torsions:
REMARK  status: ('A' for Active; 'I' for Inactive)
REMARK    1  A    between atoms: C_2  and  C_4 
ROOT
HETATM    1  C   LIG     1       1.283   0.182   0.137  1.00  0.00     0.019 C 
HETATM    2  C   LIG     1      -0.017  -0.140  -0.602  1.00  0.00     0.096 C 
HETATM    3 CL   LIG     1      -0.011  -1.843  -1.143  1.00  0.00    -0.114 Cl
ENDROOT
BRANCH   2   4
HETATM    4  C   LIG     1      -1.258   0.159   0.250  1.00  0.00     0.111 C 
HETATM    5 CL   LIG     1      -1.337  -0.846   1.726  1.00  0.00    -0.113 Cl
ENDBRANCH   2   4
TORSDOF 1
