REMARK  1 active torsions:
REMARK  status: ('A' for Active; 'I' for Inactive)
REMARK    1  A    between atoms: C_2  and  C_4 
ROOT
HETATM    1  C   LIG     1      -1.282   0.968  -0.104  1.00  0.00     0.003 C 
HETATM    2  C   LIG     1      -0.203  -0.048   0.291  1.00  0.00     0.033 C 
HETATM    3  C   LIG     1      -0.407  -1.364  -0.470  1.00  0.00     0.003 C 
ENDROOT
BRANCH   2   4
HETATM    4  C   LIG     1       1.200   0.532   0.032  1.00  0.00     0.182 C 
HETATM    5  O   LIG     1       2.195  -0.347   0.482  1.00  0.00    -0.221 OA
ENDBRANCH   2   4
TORSDOF 1
