REMARK  1 active torsions:
REMARK  status: ('A' for Active; 'I' for Inactive)
REMARK    1  A    between atoms: C_2  and  C_3 
ROOT
HETATM    1  C   LIG     1       1.847   0.358  -0.244  1.00  0.00     0.072 C 
HETATM    2  C   LIG     1       0.628  -0.514  -0.297  1.00  0.00     0.151 C 
HETATM    3  O   LIG     1       0.575  -1.411  -1.125  1.00  0.00    -0.296 OA
ENDROOT
BRANCH   2   4
HETATM    4  C   LIG     1      -0.521  -0.315   0.655  1.00  0.00     0.065 C 
HETATM    5  C   LIG     1      -1.767   0.159  -0.087  1.00  0.00     0.008 C 
ENDBRANCH   2   4
TORSDOF 1
