REMARK  1 active torsions:
REMARK  status: ('A' for Active; 'I' for Inactive)
REMARK    1  A    between atoms: C_2  and  C_4 
ROOT
HETATM    1  C   LIG     1      -1.845  -0.439  -0.010  1.00  0.00     0.036 C 
HETATM    2  C   LIG     1      -0.530   0.344   0.044  1.00  0.00     0.152 C 
HETATM    3  O   LIG     1      -0.403   0.964   1.297  1.00  0.00    -0.224 OA
ENDROOT
BRANCH   2   4
HETATM    4  C   LIG     1       0.664  -0.596  -0.190  1.00  0.00     0.033 C 
HETATM    5  C   LIG     1       1.984   0.170  -0.254  1.00  0.00     0.003 C 
ENDBRANCH   2   4
TORSDOF 1
