REMARK  0 active torsions:
REMARK  status: ('A' for Active; 'I' for Inactive)
ROOT
HETATM    1  C   LIG     1      -0.036   2.858  -0.703  1.00  0.00     0.031 C 
HETATM    2  C   LIG     1      -0.011   1.399  -0.277  1.00  0.00    -0.022 C 
HETATM    3  C   LIG     1      -1.217   0.723   0.043  1.00  0.00    -0.004 A 
HETATM    4  C   LIG     1      -1.220  -0.694   0.188  1.00  0.00    -0.004 A 
HETATM    5  C   LIG     1      -2.431  -1.341   0.533  1.00  0.00    -0.000 A 
HETATM    6  C   LIG     1      -3.608  -0.617   0.708  1.00  0.00    -0.000 A 
HETATM    7  C   LIG     1      -3.605   0.764   0.566  1.00  0.00    -0.000 A 
HETATM    8  C   LIG     1      -2.425   1.432   0.249  1.00  0.00    -0.000 A 
HETATM    9  C   LIG     1       1.218   0.692  -0.205  1.00  0.00    -0.004 A 
HETATM   10  C   LIG     1       2.460   1.371  -0.248  1.00  0.00    -0.000 A 
HETATM   11  C   LIG     1       3.663   0.674  -0.173  1.00  0.00    -0.000 A 
HETATM   12  C   LIG     1       3.660  -0.707  -0.031  1.00  0.00    -0.000 A 
HETATM   13  C   LIG     1       2.455  -1.401   0.036  1.00  0.00    -0.000 A 
HETATM   14  C   LIG     1       1.215  -0.724  -0.060  1.00  0.00    -0.004 A 
HETATM   15  C   LIG     1      -0.017  -1.426   0.004  1.00  0.00    -0.022 C 
HETATM   16  C   LIG     1      -0.046  -2.942  -0.092  1.00  0.00     0.031 C 
ENDROOT
TORSDOF 0
