REMARK  3 active torsions:
REMARK  status: ('A' for Active; 'I' for Inactive)
REMARK    1  A    between atoms: C_2  and  C_5 
REMARK    2  A    between atoms: C_5  and  C_6 
REMARK    3  A    between atoms: C_5  and  C_13 
ROOT
HETATM    1  C   LIG     1       0.070   1.210   0.156  1.00  0.00     0.088 C 
ENDROOT
BRANCH   1   2
HETATM    2  C   LIG     1       0.216   2.377  -0.872  1.00  0.00     0.206 C 
HETATM    3 CL   LIG     1      -1.084   3.573  -0.602  1.00  0.00    -0.082 Cl
HETATM    4 CL   LIG     1       0.088   1.871  -2.584  1.00  0.00    -0.082 Cl
HETATM    5 CL   LIG     1       1.759   3.250  -0.640  1.00  0.00    -0.082 Cl
ENDBRANCH   1   2
BRANCH   1   6
HETATM    6  C   LIG     1      -1.191   0.390  -0.078  1.00  0.00    -0.015 A 
HETATM    7  C   LIG     1      -1.228  -0.638  -1.041  1.00  0.00    -0.003 A 
HETATM    8  C   LIG     1      -2.392  -1.387  -1.237  1.00  0.00     0.011 A 
HETATM    9  C   LIG     1      -3.532  -1.123  -0.474  1.00  0.00     0.058 A 
HETATM   10  C   LIG     1      -3.508  -0.109   0.488  1.00  0.00     0.011 A 
HETATM   11 CL   LIG     1      -4.991  -2.064  -0.721  1.00  0.00    -0.082 Cl
HETATM   12  C   LIG     1      -2.346   0.642   0.687  1.00  0.00    -0.003 A 
ENDBRANCH   1   6
BRANCH   1  13
HETATM   13  C   LIG     1       1.282   0.288   0.354  1.00  0.00    -0.004 A 
HETATM   14  C   LIG     1       2.206   0.032  -0.683  1.00  0.00    -0.003 A 
HETATM   15  C   LIG     1       3.286  -0.832  -0.486  1.00  0.00    -0.000 A 
HETATM   16  C   LIG     1       3.460  -1.468   0.741  1.00  0.00     0.001 A 
HETATM   17  C   LIG     1       2.551  -1.248   1.774  1.00  0.00     0.011 A 
HETATM   18  C   LIG     1       1.464  -0.384   1.591  1.00  0.00     0.054 A 
HETATM   19 CL   LIG     1       0.345  -0.193   2.940  1.00  0.00    -0.083 Cl
ENDBRANCH   1  13
TORSDOF 3
