REMARK  1 active torsions:
REMARK  status: ('A' for Active; 'I' for Inactive)
REMARK    1  A    between atoms: C_2  and  C_4 
ROOT
HETATM    1 CL   LIG     1      -1.663   1.382   0.226  1.00  0.00    -0.096 Cl
HETATM    2  C   LIG     1      -0.721  -0.087  -0.135  1.00  0.00     0.175 C 
HETATM    3 CL   LIG     1      -1.264  -1.395   0.951  1.00  0.00    -0.096 Cl
ENDROOT
BRANCH   2   4
HETATM    4  C   LIG     1       0.768   0.193   0.054  1.00  0.00     0.128 C 
HETATM    5 CL   LIG     1       1.751  -1.195  -0.484  1.00  0.00    -0.111 Cl
ENDBRANCH   2   4
TORSDOF 1
