REMARK  0 active torsions:
REMARK  status: ('A' for Active; 'I' for Inactive)
ROOT
HETATM    1  C   LIG     1       0.684   0.243   0.040  1.00  0.00     0.091 C 
HETATM    2 CL   LIG     1       1.927  -0.906  -0.445  1.00  0.00    -0.080 Cl
HETATM    3  C   LIG     1      -0.618  -0.062   0.019  1.00  0.00     0.126 C 
HETATM    4 CL   LIG     1      -1.800   1.138   0.519  1.00  0.00    -0.069 Cl
HETATM    5 CL   LIG     1      -1.196  -1.642  -0.498  1.00  0.00    -0.069 Cl
ENDROOT
TORSDOF 0
