REMARK  1 active torsions:
REMARK  status: ('A' for Active; 'I' for Inactive)
REMARK    1  A    between atoms: C_2  and  C_3 
ROOT
HETATM    1  N   LIG     1       1.325  -0.212  -0.509  1.00  0.00    -0.060 NA
HETATM    2  C   LIG     1       0.158  -0.526   0.250  1.00  0.00     0.260 C 
HETATM    3  O   LIG     1       0.045  -1.661   0.784  1.00  0.00    -0.275 OA
ENDROOT
BRANCH   2   4
HETATM    4  C   LIG     1      -0.952   0.468   0.375  1.00  0.00     0.179 C 
HETATM    5 CL   LIG     1      -2.001   0.378  -1.059  1.00  0.00    -0.104 Cl
ENDBRANCH   2   4
TORSDOF 1
