REMARK  1 active torsions:
REMARK  status: ('A' for Active; 'I' for Inactive)
REMARK    1  A    between atoms: C_2  and  C_4 
ROOT
HETATM    1 CL   LIG     1      -1.550   1.441   0.516  1.00  0.00    -0.095 Cl
HETATM    2  C   LIG     1      -0.754  -0.016  -0.138  1.00  0.00     0.189 C 
HETATM    3 CL   LIG     1      -1.508  -1.442   0.627  1.00  0.00    -0.095 Cl
ENDROOT
BRANCH   2   4
HETATM    4  C   LIG     1       0.754   0.016   0.138  1.00  0.00     0.189 C 
HETATM    5 CL   LIG     1       1.550  -1.441  -0.516  1.00  0.00    -0.095 Cl
HETATM    6 CL   LIG     1       1.508   1.442  -0.627  1.00  0.00    -0.095 Cl
ENDBRANCH   2   4
TORSDOF 1
