REMARK  1 active torsions:
REMARK  status: ('A' for Active; 'I' for Inactive)
REMARK    1  A    between atoms: C_2  and  C_3 
ROOT
HETATM    1  C   LIG     1      -1.513  -0.038   0.432  1.00  0.00     0.037 C 
HETATM    2  C   LIG     1      -0.079  -0.099  -0.020  1.00  0.00     0.043 C 
HETATM    3  C   LIG     1       0.567  -1.268   0.051  1.00  0.00     0.002 C 
ENDROOT
BRANCH   2   4
HETATM    4  C   LIG     1       0.583   1.112  -0.566  1.00  0.00     0.207 C 
HETATM    5  O   LIG     1       1.969   1.263  -0.552  1.00  0.00    -0.644 OA
HETATM    6  O   LIG     1      -0.118   2.041  -1.047  1.00  0.00    -0.644 OA
ENDBRANCH   2   4
TORSDOF 1
