REMARK  2 active torsions:
REMARK  status: ('A' for Active; 'I' for Inactive)
REMARK    1  A    between atoms: C_4  and  N_11 
REMARK    2  A    between atoms: C_7  and  C_8 
ROOT
HETATM    1  O   LIG     1      -2.015   1.632  -1.058  1.00  0.00    -0.211 OA
HETATM    2  C   LIG     1      -1.278   1.090   0.015  1.00  0.00     0.227 C 
HETATM    3  C   LIG     1      -1.086  -0.426  -0.291  1.00  0.00     0.110 C 
HETATM    4  C   LIG     1      -2.338  -1.336   0.021  1.00  0.00     0.272 C 
HETATM    5  C   LIG     1      -3.544  -0.628   0.648  1.00  0.00     0.147 C 
HETATM    6  O   LIG     1      -4.791  -1.261   0.572  1.00  0.00    -0.193 OA
HETATM    7  C   LIG     1      -3.380   0.516   1.349  1.00  0.00     0.113 C 
HETATM    8  C   LIG     1       0.045   1.868   0.136  1.00  0.00     0.142 C 
HETATM    9  O   LIG     1      -0.017   3.254   0.326  1.00  0.00    -0.192 OA
HETATM   10  C   LIG     1       1.264   1.274   0.081  1.00  0.00     0.046 C 
HETATM   11  C   LIG     1       2.517   2.072   0.175  1.00  0.00     0.195 C 
HETATM   12  O   LIG     1       2.540   3.168   0.796  1.00  0.00    -0.287 OA
HETATM   13  C   LIG     1       1.421  -0.224  -0.157  1.00  0.00     0.090 C 
HETATM   14  C   LIG     1       0.187  -0.987   0.376  1.00  0.00     0.165 C 
HETATM   15  O   LIG     1       0.092  -0.863   1.776  1.00  0.00    -0.223 OA
HETATM   16  C   LIG     1       2.791  -0.735   0.413  1.00  0.00     0.152 C 
HETATM   17  C   LIG     1       2.928  -2.265   0.221  1.00  0.00     0.038 C 
HETATM   18  O   LIG     1       2.836  -0.451   1.790  1.00  0.00    -0.221 OA
HETATM   19  C   LIG     1       3.906   0.071  -0.283  1.00  0.00     0.011 A 
HETATM   20  C   LIG     1       3.772   1.481  -0.342  1.00  0.00     0.062 A 
HETATM   21  C   LIG     1       4.801   2.268  -0.922  1.00  0.00     0.134 A 
HETATM   22  O   LIG     1       4.709   3.652  -1.068  1.00  0.00    -0.190 OA
HETATM   23  C   LIG     1       5.958   1.647  -1.401  1.00  0.00     0.028 A 
HETATM   24  C   LIG     1       6.086   0.262  -1.363  1.00  0.00     0.002 A 
HETATM   25  C   LIG     1       5.069  -0.525  -0.820  1.00  0.00    -0.002 A 
HETATM   26  C   LIG     1      -2.088   1.208   1.286  1.00  0.00     0.212 C 
HETATM   27  O   LIG     1      -1.700   1.908   2.263  1.00  0.00    -0.288 OA
ENDROOT
BRANCH   4  28
HETATM   28  N   LIG     1      -2.673  -2.144  -1.185  1.00  0.00     0.146 N 
HETATM   29  C   LIG     1      -3.192  -3.484  -0.874  1.00  0.00     0.286 C 
HETATM   30  C   LIG     1      -3.497  -1.449  -2.188  1.00  0.00     0.286 C 
ENDBRANCH   4  28
BRANCH   7  31
HETATM   31  C   LIG     1      -4.466   1.120   2.156  1.00  0.00     0.271 C 
HETATM   32  N   LIG     1      -4.686   2.532   2.129  1.00  0.00    -0.057 NA
HETATM   33  O   LIG     1      -5.167   0.402   2.918  1.00  0.00    -0.271 OA
ENDBRANCH   7  31
TORSDOF 2
