REMARK  2 active torsions:
REMARK  status: ('A' for Active; 'I' for Inactive)
REMARK    1  A    between atoms: C_2  and  C_3 
REMARK    2  A    between atoms: C_2  and  C_11 
ROOT
HETATM    1  C   LIG     1      -0.337  -1.900   1.634  1.00  0.00     0.009 C 
HETATM    2  C   LIG     1      -0.185  -1.214   0.254  1.00  0.00     0.038 C 
HETATM    3  C   LIG     1      -0.308  -2.325  -0.818  1.00  0.00     0.009 C 
ENDROOT
BRANCH   2   4
HETATM    4  C   LIG     1       1.186  -0.538   0.060  1.00  0.00    -0.019 A 
HETATM    5  C   LIG     1       1.410   0.236  -1.100  1.00  0.00    -0.002 A 
HETATM    6  C   LIG     1       2.638   0.865  -1.320  1.00  0.00     0.027 A 
HETATM    7  C   LIG     1       3.673   0.732  -0.390  1.00  0.00     0.131 A 
HETATM    8  C   LIG     1       3.473  -0.034   0.761  1.00  0.00     0.027 A 
HETATM    9  O   LIG     1       4.901   1.354  -0.598  1.00  0.00    -0.190 OA
HETATM   10  C   LIG     1       2.246  -0.665   0.987  1.00  0.00    -0.002 A 
ENDBRANCH   2   4
BRANCH   2  11
HETATM   11  C   LIG     1      -1.290  -0.145   0.150  1.00  0.00    -0.019 A 
HETATM   12  C   LIG     1      -2.386  -0.253  -0.737  1.00  0.00    -0.002 A 
HETATM   13  C   LIG     1      -3.365   0.745  -0.790  1.00  0.00     0.027 A 
HETATM   14  C   LIG     1      -3.276   1.865   0.037  1.00  0.00     0.131 A 
HETATM   15  C   LIG     1      -2.203   1.988   0.924  1.00  0.00     0.027 A 
HETATM   16  O   LIG     1      -4.260   2.850  -0.029  1.00  0.00    -0.190 OA
HETATM   17  C   LIG     1      -1.222   0.994   0.982  1.00  0.00    -0.002 A 
ENDBRANCH   2  11
TORSDOF 2
