REMARK  2 active torsions:
REMARK  status: ('A' for Active; 'I' for Inactive)
REMARK    1  A    between atoms: C_2  and  CA_3 
REMARK    2  A    between atoms: CA_3  and  C_4 
ROOT
HETATM    1  CA  LIG     1      -0.531   0.741  -0.124  1.00  0.00     0.387 C 
HETATM    2  N   LIG     1      -0.076   1.470   1.064  1.00  0.00     0.628 N 
ENDROOT
BRANCH   1   3
HETATM    3  C   LIG     1       0.675   0.234  -0.946  1.00  0.00     0.051 C 
HETATM    4  C   LIG     1       1.680  -0.594  -0.139  1.00  0.00     0.003 C 
ENDBRANCH   1   3
BRANCH   1   5
HETATM    5  C   LIG     1      -1.511  -0.350   0.246  1.00  0.00     0.224 C 
HETATM    6  O   LIG     1      -1.308  -1.668  -0.156  1.00  0.00    -0.646 OA
HETATM    7  OXT LIG     1      -2.544  -0.057   0.906  1.00  0.00    -0.646 OA
ENDBRANCH   1   5
TORSDOF 2
