REMARK  2 active torsions:
REMARK  status: ('A' for Active; 'I' for Inactive)
REMARK    1  A    between atoms: C_2  and  C_4 
REMARK    2  A    between atoms: C_4  and  O_5 
ROOT
HETATM    1  C   LIG     1       0.327   0.355   0.135  1.00  0.00     0.292 C 
HETATM    2  O   LIG     1       0.434   1.504   0.647  1.00  0.00    -0.260 OA
ENDROOT
BRANCH   1   3
HETATM    3  C   LIG     1      -0.993  -0.120  -0.335  1.00  0.00     0.041 C 
HETATM    4  C   LIG     1      -1.138  -1.363  -0.807  1.00  0.00     0.001 C 
HETATM    5  C   LIG     1      -2.196   0.775  -0.207  1.00  0.00     0.037 C 
ENDBRANCH   1   3
BRANCH   1   6
HETATM    6  O   LIG     1       1.455  -0.465   0.014  1.00  0.00    -0.296 OA
HETATM    7  C   LIG     1       2.748  -0.061   0.449  1.00  0.00     0.185 C 
ENDBRANCH   1   6
TORSDOF 2
