REMARK  4 active torsions:
REMARK  status: ('A' for Active; 'I' for Inactive)
REMARK    1  A    between atoms: C_13  and  C_14 
REMARK    2  A    between atoms: C_14  and  C_16 
REMARK    3  A    between atoms: C_16  and  C_17 
REMARK    4  A    between atoms: C_17  and  C_18 
ROOT
HETATM    1  O   LIG     1       7.103   1.009  -0.965  1.00  0.00    -0.224 OA
HETATM    2  C   LIG     1       5.712   0.826  -1.030  1.00  0.00     0.152 C 
HETATM    3  C   LIG     1       4.976   2.055  -0.435  1.00  0.00     0.033 C 
HETATM    4  C   LIG     1       3.447   1.849  -0.274  1.00  0.00     0.003 C 
HETATM    5  C   LIG     1       3.095   0.522   0.457  1.00  0.00     0.000 C 
HETATM    6  C   LIG     1       3.643   0.585   1.920  1.00  0.00     0.000 C 
HETATM    7  C   LIG     1       1.535   0.243   0.558  1.00  0.00     0.005 C 
HETATM    8  C   LIG     1       0.625   1.478   0.708  1.00  0.00     0.033 C 
HETATM    9  C   LIG     1      -0.839   1.113   1.134  1.00  0.00     0.152 C 
HETATM   10  O   LIG     1      -1.669   2.187   0.801  1.00  0.00    -0.224 OA
HETATM   11  C   LIG     1      -1.351  -0.282   0.557  1.00  0.00     0.028 C 
HETATM   12  C   LIG     1      -1.173  -1.362   1.686  1.00  0.00     0.003 C 
HETATM   13  C   LIG     1      -2.841  -0.470   0.031  1.00  0.00     0.002 C 
HETATM   14  C   LIG     1      -2.735  -1.644  -0.987  1.00  0.00     0.000 C 
HETATM   15  C   LIG     1      -1.256  -1.829  -1.346  1.00  0.00     0.000 C 
HETATM   16  C   LIG     1      -0.536  -0.655  -0.697  1.00  0.00     0.005 C 
HETATM   17  C   LIG     1       1.021  -0.705  -0.558  1.00  0.00     0.031 C 
HETATM   18  C   LIG     1       1.678  -2.110  -0.388  1.00  0.00     0.152 C 
HETATM   19  O   LIG     1       1.545  -2.825  -1.588  1.00  0.00    -0.224 OA
HETATM   20  C   LIG     1       3.198  -2.013  -0.020  1.00  0.00     0.033 C 
HETATM   21  C   LIG     1       3.772  -0.624  -0.373  1.00  0.00     0.005 C 
HETATM   22  C   LIG     1       5.304  -0.516  -0.375  1.00  0.00     0.033 C 
ENDROOT
BRANCH  13  23
HETATM   23  C   LIG     1      -3.679   0.737  -0.544  1.00  0.00     0.001 C 
HETATM   24  C   LIG     1      -3.080   1.365  -1.823  1.00  0.00     0.000 C 
BRANCH  23  25
HETATM   25  C   LIG     1      -5.171   0.345  -0.788  1.00  0.00     0.011 C 
BRANCH  25  26
HETATM   26  C   LIG     1      -6.018   0.406   0.499  1.00  0.00     0.098 C 
BRANCH  26  27
HETATM   27  C   LIG     1      -7.400  -0.123   0.267  1.00  0.00     0.185 C 
HETATM   28  O   LIG     1      -8.500   0.723   0.380  1.00  0.00    -0.647 OA
HETATM   29  O   LIG     1      -7.571  -1.340  -0.011  1.00  0.00    -0.647 OA
ENDBRANCH  26  27
ENDBRANCH  25  26
ENDBRANCH  23  25
ENDBRANCH  13  23
TORSDOF 4
