REMARK  4 active torsions:
REMARK  status: ('A' for Active; 'I' for Inactive)
REMARK    1  A    between atoms: C_2  and  C_3 
REMARK    2  A    between atoms: C_3  and  C_4 
REMARK    3  A    between atoms: C_4  and  C_5 
REMARK    4  A    between atoms: C_4  and  C_11 
ROOT
HETATM    1  C   LIG     1      -0.205   0.271   0.759  1.00  0.00     0.071 A 
HETATM    2  C   LIG     1       0.014   0.526   2.130  1.00  0.00     0.298 A 
HETATM    3  O   LIG     1      -0.954   0.620   2.931  1.00  0.00    -0.259 OA
HETATM    4  C   LIG     1       0.926   0.154  -0.085  1.00  0.00     0.134 A 
HETATM    5  C   LIG     1       2.220   0.334   0.460  1.00  0.00     0.048 A 
HETATM    6  C   LIG     1       3.402   0.269  -0.309  1.00  0.00     0.004 A 
HETATM    7  C   LIG     1       4.650   0.451   0.295  1.00  0.00     0.000 A 
HETATM    8  C   LIG     1       4.741   0.701   1.664  1.00  0.00     0.002 A 
HETATM    9  C   LIG     1       3.583   0.773   2.438  1.00  0.00     0.025 A 
HETATM   10  C   LIG     1       2.327   0.595   1.847  1.00  0.00     0.105 A 
HETATM   11  O   LIG     1       1.243   0.672   2.605  1.00  0.00    -0.273 OA
HETATM   12  O   LIG     1       0.726  -0.160  -1.433  1.00  0.00    -0.190 OA
ENDROOT
BRANCH   1  13
HETATM   13  C   LIG     1      -1.638   0.155   0.209  1.00  0.00     0.059 C 
BRANCH  13  14
HETATM   14  C   LIG     1      -1.911   1.193  -0.912  1.00  0.00     0.073 C 
BRANCH  14  15
HETATM   15  C   LIG     1      -1.504   2.588  -0.505  1.00  0.00     0.152 C 
HETATM   16  C   LIG     1      -0.372   3.301  -1.183  1.00  0.00     0.072 C 
HETATM   17  O   LIG     1      -2.107   3.151   0.397  1.00  0.00    -0.296 OA
ENDBRANCH  14  15
ENDBRANCH  13  14
BRANCH  13  18
HETATM   18  C   LIG     1      -2.036  -1.260  -0.220  1.00  0.00    -0.018 A 
HETATM   19  C   LIG     1      -3.372  -1.504  -0.601  1.00  0.00    -0.004 A 
HETATM   20  C   LIG     1      -3.788  -2.781  -0.986  1.00  0.00    -0.000 A 
HETATM   21  C   LIG     1      -2.884  -3.843  -0.982  1.00  0.00    -0.000 A 
HETATM   22  C   LIG     1      -1.566  -3.632  -0.578  1.00  0.00    -0.000 A 
HETATM   23  C   LIG     1      -1.143  -2.357  -0.190  1.00  0.00    -0.004 A 
ENDBRANCH  13  18
ENDBRANCH   1  13
TORSDOF 4
