REMARK  0 active torsions:
REMARK  status: ('A' for Active; 'I' for Inactive)
ROOT
HETATM    1  S   LIG     1       3.578   1.303  -0.240  1.00  0.00    -0.056 SA
HETATM    2  C   LIG     1       2.138   0.539  -0.079  1.00  0.00     0.157 A 
HETATM    3  C   LIG     1       2.098  -0.815   0.284  1.00  0.00     0.129 A 
HETATM    4  N   LIG     1       0.898  -1.440   0.415  1.00  0.00    -0.237 NA
HETATM    5  C   LIG     1      -0.263  -0.770   0.199  1.00  0.00     0.136 A 
HETATM    6  C   LIG     1      -1.502  -1.396   0.329  1.00  0.00     0.123 A 
HETATM    7  N   LIG     1      -2.639  -0.687   0.103  1.00  0.00    -0.221 NA
HETATM    8  C   LIG     1      -2.590   0.627  -0.248  1.00  0.00     0.201 A 
HETATM    9  N   LIG     1      -1.391   1.256  -0.381  1.00  0.00    -0.203 NA
HETATM   10  C   LIG     1      -0.229   0.586  -0.165  1.00  0.00     0.184 A 
HETATM   11  N   LIG     1       0.972   1.213  -0.296  1.00  0.00    -0.213 NA
ENDROOT
TORSDOF 0
