REMARK  2 active torsions:
REMARK  status: ('A' for Active; 'I' for Inactive)
REMARK    1  A    between atoms: O_2  and  C_3 
REMARK    2  A    between atoms: C_9  and  O_18 
ROOT
HETATM    1  C   LIG     1      -0.392   1.375  -0.099  1.00  0.00     0.140 A 
HETATM    2  C   LIG     1       1.006   1.424  -0.061  1.00  0.00     0.126 A 
HETATM    3  O   LIG     1       1.758   2.498  -0.046  1.00  0.00    -0.303 OA
HETATM    4  C   LIG     1       3.015   2.118  -0.010  1.00  0.00     0.123 A 
HETATM    5  C   LIG     1       3.095   0.736  -0.000  1.00  0.00     0.031 A 
HETATM    6  C   LIG     1       1.782   0.286  -0.034  1.00  0.00     0.049 A 
HETATM    7  C   LIG     1       1.208  -1.006  -0.042  1.00  0.00     0.101 A 
HETATM    8  C   LIG     1      -0.216  -1.085  -0.080  1.00  0.00     0.086 A 
HETATM    9  C   LIG     1      -1.000   0.110  -0.108  1.00  0.00     0.129 A 
HETATM   10  O   LIG     1      -2.329   0.041  -0.144  1.00  0.00    -0.309 OA
HETATM   11  C   LIG     1      -2.996  -1.107  -0.156  1.00  0.00     0.081 A 
HETATM   12  C   LIG     1      -4.490  -1.090  -0.196  1.00  0.00     0.058 C 
HETATM   13  C   LIG     1      -2.307  -2.321  -0.130  1.00  0.00     0.062 A 
HETATM   14  C   LIG     1      -0.913  -2.315  -0.092  1.00  0.00     0.201 A 
HETATM   15  O   LIG     1      -0.305  -3.419  -0.070  1.00  0.00    -0.286 OA
ENDROOT
BRANCH   1  16
HETATM   16  O   LIG     1      -1.210   2.518  -0.127  1.00  0.00    -0.324 OA
HETATM   17  C   LIG     1      -0.740   3.861  -0.122  1.00  0.00     0.182 C 
ENDBRANCH   1  16
BRANCH   7  18
HETATM   18  O   LIG     1       1.949  -2.204  -0.015  1.00  0.00    -0.328 OA
HETATM   19  C   LIG     1       3.362  -2.340   0.024  1.00  0.00     0.181 C 
ENDBRANCH   7  18
TORSDOF 2
