REMARK  6 active torsions:
REMARK  status: ('A' for Active; 'I' for Inactive)
REMARK    1  A    between atoms: C_2  and  C_3 
REMARK    2  A    between atoms: C_3  and  C_4 
REMARK    3  A    between atoms: C_4  and  C_5 
REMARK    4  A    between atoms: C_5  and  C_6 
REMARK    5  A    between atoms: C_6  and  C_7 
REMARK    6  A    between atoms: C_7  and  C_8 
ROOT
HETATM    1  C   LIG     1      -1.209   0.310  -0.452  1.00  0.00     0.008 C 
ENDROOT
BRANCH   1   2
HETATM    2  C   LIG     1      -2.517   1.015  -0.064  1.00  0.00     0.065 C 
BRANCH   2   3
HETATM    3  C   LIG     1      -3.373   0.169   0.841  1.00  0.00     0.151 C 
HETATM    4  C   LIG     1      -4.519  -0.619   0.281  1.00  0.00     0.072 C 
HETATM    5  O   LIG     1      -3.143   0.134   2.040  1.00  0.00    -0.296 OA
ENDBRANCH   2   3
ENDBRANCH   1   2
BRANCH   1   6
HETATM    6  C   LIG     1      -0.205   0.246   0.712  1.00  0.00     0.000 C 
BRANCH   6   7
HETATM    7  C   LIG     1       1.107  -0.456   0.324  1.00  0.00     0.000 C 
BRANCH   7   8
HETATM    8  C   LIG     1       2.025   0.438  -0.528  1.00  0.00     0.000 C 
BRANCH   8   9
HETATM    9  C   LIG     1       3.330  -0.270  -0.926  1.00  0.00     0.000 C 
HETATM   10  C   LIG     1       4.296  -0.438   0.246  1.00  0.00     0.000 C 
ENDBRANCH   8   9
ENDBRANCH   7   8
ENDBRANCH   6   7
ENDBRANCH   1   6
TORSDOF 6
