REMARK  1 active torsions:
REMARK  status: ('A' for Active; 'I' for Inactive)
REMARK    1  A    between atoms: N_3  and  C_4 
ROOT
HETATM    1  C   LIG     1      -0.632  -2.033   0.328  1.00  0.00     0.152 C 
HETATM    2  N   LIG     1      -0.926  -0.604   0.194  1.00  0.00    -0.265 N 
HETATM    3  N   LIG     1      -0.036   0.354  -0.071  1.00  0.00    -0.214 N 
HETATM    4  C   LIG     1      -0.703   1.515  -0.236  1.00  0.00     0.293 A 
HETATM    5  C   LIG     1      -2.049   1.297  -0.065  1.00  0.00     0.141 A 
HETATM    6  N   LIG     1      -3.098   2.258  -0.197  1.00  0.00    -0.094 NA
HETATM    7  C   LIG     1      -2.166  -0.053   0.223  1.00  0.00     0.072 A 
HETATM    8  C   LIG     1      -3.448  -0.812   0.402  1.00  0.00     0.053 C 
HETATM    9  O   LIG     1      -0.161   2.623  -0.496  1.00  0.00    -0.264 OA
ENDROOT
BRANCH   3  10
HETATM   10  C   LIG     1       1.392   0.193  -0.129  1.00  0.00     0.084 A 
HETATM   11  C   LIG     1       2.088  -0.351   0.961  1.00  0.00     0.019 A 
HETATM   12  C   LIG     1       3.479  -0.488   0.911  1.00  0.00     0.002 A 
HETATM   13  C   LIG     1       4.183  -0.075  -0.224  1.00  0.00     0.000 A 
HETATM   14  C   LIG     1       3.497   0.479  -1.309  1.00  0.00     0.002 A 
HETATM   15  C   LIG     1       2.106   0.617  -1.261  1.00  0.00     0.019 A 
ENDBRANCH   3  10
TORSDOF 1
