REMARK  0 active torsions:
REMARK  status: ('A' for Active; 'I' for Inactive)
ROOT
HETATM    1  C   LIG     1      -2.656   0.555  -0.020  1.00  0.00     0.033 C 
HETATM    2  C   LIG     1      -1.400  -0.254   0.011  1.00  0.00    -0.001 A 
HETATM    3  C   LIG     1      -1.298  -1.640   0.066  1.00  0.00     0.095 A 
HETATM    4  N   LIG     1       0.001  -2.017   0.080  1.00  0.00    -0.244 NA
HETATM    5  C   LIG     1       0.718  -0.880   0.034  1.00  0.00     0.081 A 
HETATM    6  C   LIG     1      -0.103   0.217  -0.009  1.00  0.00     0.015 A 
HETATM    7  C   LIG     1       0.404   1.515  -0.061  1.00  0.00     0.001 A 
HETATM    8  C   LIG     1       1.802   1.672  -0.068  1.00  0.00     0.000 A 
HETATM    9  C   LIG     1       2.650   0.542  -0.024  1.00  0.00     0.002 A 
HETATM   10  C   LIG     1       2.107  -0.755   0.028  1.00  0.00     0.019 A 
ENDROOT
TORSDOF 0
