REMARK  0 active torsions:
REMARK  status: ('A' for Active; 'I' for Inactive)
ROOT
HETATM    1  C   LIG     1       1.411   0.116   0.059  1.00  0.00    -0.001 A 
HETATM    2  C   LIG     1       2.160  -1.069   0.187  1.00  0.00    -0.000 A 
HETATM    3  C   LIG     1       1.490  -2.314   0.251  1.00  0.00    -0.000 A 
HETATM    4  C   LIG     1       0.080  -2.377   0.187  1.00  0.00    -0.004 A 
HETATM    5  C   LIG     1      -0.635  -1.182   0.060  1.00  0.00    -0.022 A 
HETATM    6  C   LIG     1      -2.112  -0.952  -0.029  1.00  0.00     0.031 A 
HETATM    7  C   LIG     1      -2.233   0.596  -0.154  1.00  0.00     0.031 A 
HETATM    8  C   LIG     1       0.027   0.002   0.001  1.00  0.00    -0.008 A 
HETATM    9  C   LIG     1      -0.811   1.063  -0.121  1.00  0.00    -0.022 A 
HETATM   10  C   LIG     1      -0.292   2.359  -0.196  1.00  0.00    -0.004 A 
HETATM   11  C   LIG     1       1.109   2.527  -0.141  1.00  0.00    -0.000 A 
HETATM   12  C   LIG     1       1.965   1.407  -0.013  1.00  0.00    -0.000 A 
ENDROOT
TORSDOF 0
