REMARK  4 active torsions:
REMARK  status: ('A' for Active; 'I' for Inactive)
REMARK    1  A    between atoms: C_20  and  C_21 
REMARK    2  A    between atoms: C_21  and  C_23 
REMARK    3  A    between atoms: C_23  and  C_24 
REMARK    4  A    between atoms: C_24  and  C_25 
ROOT
HETATM    1  O   LIG     1      -7.259   0.327   0.351  1.00  0.00    -0.224 OA
HETATM    2  C   LIG     1      -5.921  -0.099   0.380  1.00  0.00     0.152 C 
HETATM    3  C   LIG     1      -5.234   0.351   1.692  1.00  0.00     0.033 C 
HETATM    4  C   LIG     1      -3.707   0.087   1.701  1.00  0.00     0.003 C 
HETATM    5  C   LIG     1      -2.985   0.643   0.433  1.00  0.00     0.000 C 
HETATM    6  C   LIG     1      -3.129   2.204   0.419  1.00  0.00     0.000 C 
HETATM    7  C   LIG     1      -3.694  -0.025  -0.802  1.00  0.00     0.003 C 
HETATM    8  C   LIG     1      -2.885   0.157  -2.103  1.00  0.00     0.000 C 
HETATM    9  C   LIG     1      -1.498  -0.553  -2.011  1.00  0.00     0.000 C 
HETATM   10  C   LIG     1      -1.079  -0.874  -0.548  1.00  0.00     0.000 C 
HETATM   11  C   LIG     1      -1.426   0.322   0.390  1.00  0.00     0.003 C 
HETATM   12  C   LIG     1      -0.721   0.161   1.757  1.00  0.00     0.033 C 
HETATM   13  C   LIG     1       0.838   0.170   1.639  1.00  0.00     0.152 C 
HETATM   14  O   LIG     1       1.369  -0.580   2.707  1.00  0.00    -0.224 OA
HETATM   15  C   LIG     1       1.380  -0.364   0.247  1.00  0.00     0.028 C 
HETATM   16  C   LIG     1       1.653   0.830  -0.735  1.00  0.00     0.003 C 
HETATM   17  C   LIG     1       0.380  -1.381  -0.334  1.00  0.00     0.002 C 
HETATM   18  C   LIG     1       1.131  -2.076  -1.467  1.00  0.00     0.000 C 
HETATM   19  C   LIG     1       2.585  -2.158  -0.960  1.00  0.00     0.000 C 
HETATM   20  C   LIG     1       2.650  -1.276   0.319  1.00  0.00     0.002 C 
HETATM   21  C   LIG     1      -5.176   0.360  -0.902  1.00  0.00     0.033 C 
ENDROOT
BRANCH  20  22
HETATM   22  C   LIG     1       4.014  -0.564   0.682  1.00  0.00     0.001 C 
HETATM   23  C   LIG     1       4.745  -1.362   1.789  1.00  0.00     0.000 C 
BRANCH  22  24
HETATM   24  C   LIG     1       4.973  -0.321  -0.524  1.00  0.00     0.011 C 
BRANCH  24  25
HETATM   25  C   LIG     1       6.145   0.637  -0.235  1.00  0.00     0.098 C 
BRANCH  25  26
HETATM   26  C   LIG     1       5.673   2.012   0.149  1.00  0.00     0.185 C 
HETATM   27  O   LIG     1       4.882   2.748  -0.733  1.00  0.00    -0.647 OA
HETATM   28  O   LIG     1       5.994   2.503   1.267  1.00  0.00    -0.647 OA
ENDBRANCH  25  26
ENDBRANCH  24  25
ENDBRANCH  22  24
ENDBRANCH  20  22
TORSDOF 4
