REMARK  4 active torsions:
REMARK  status: ('A' for Active; 'I' for Inactive)
REMARK    1  A    between atoms: C_14  and  C_15 
REMARK    2  A    between atoms: C_15  and  C_16 
REMARK    3  A    between atoms: C_16  and  C_17 
REMARK    4  A    between atoms: C_17  and  C_18 
ROOT
HETATM    1  C   LIG     1      -3.913  -0.556   0.199  1.00  0.00     0.033 C 
HETATM    2  C   LIG     1      -4.226  -0.634  -1.327  1.00  0.00     0.035 C 
HETATM    3  C   LIG     1      -4.784   0.672  -1.897  1.00  0.00     0.152 C 
HETATM    4  O   LIG     1      -6.061   0.914  -1.363  1.00  0.00    -0.224 OA
HETATM    5  C   LIG     1      -3.839   1.839  -1.593  1.00  0.00     0.033 C 
HETATM    6  C   LIG     1      -3.606   1.969  -0.086  1.00  0.00     0.003 C 
HETATM    7  C   LIG     1      -3.008   0.685   0.579  1.00  0.00     0.003 C 
HETATM    8  C   LIG     1      -3.065   0.946   2.112  1.00  0.00     0.000 C 
HETATM    9  C   LIG     1      -1.535   0.387   0.104  1.00  0.00     0.000 C 
HETATM   10  C   LIG     1      -0.989  -0.936   0.721  1.00  0.00     0.003 C 
HETATM   11  C   LIG     1       0.557  -1.067   0.557  1.00  0.00     0.000 C 
HETATM   12  C   LIG     1       1.218  -2.446   0.562  1.00  0.00     0.000 C 
HETATM   13  C   LIG     1       2.615  -2.210  -0.046  1.00  0.00     0.000 C 
HETATM   14  C   LIG     1       2.723  -0.682  -0.371  1.00  0.00     0.000 C 
HETATM   15  C   LIG     1       1.205  -0.309  -0.612  1.00  0.00     0.000 C 
HETATM   16  C   LIG     1       0.790  -0.922  -2.000  1.00  0.00     0.000 C 
HETATM   17  C   LIG     1       0.751   1.202  -0.641  1.00  0.00     0.000 C 
HETATM   18  C   LIG     1      -0.478   1.510   0.257  1.00  0.00     0.000 C 
HETATM   19  C   LIG     1      -1.845  -2.122   0.256  1.00  0.00     0.033 C 
HETATM   20  C   LIG     1      -3.316  -1.913   0.694  1.00  0.00     0.152 C 
HETATM   21  O   LIG     1      -4.104  -2.984   0.239  1.00  0.00    -0.224 OA
ENDROOT
BRANCH  14  22
HETATM   22  C   LIG     1       3.576  -0.029   0.805  1.00  0.00     0.001 C 
HETATM   23  C   LIG     1       3.374   1.455   1.125  1.00  0.00     0.000 C 
BRANCH  22  24
HETATM   24  C   LIG     1       5.097  -0.327   0.628  1.00  0.00     0.011 C 
BRANCH  24  25
HETATM   25  C   LIG     1       5.814   0.503  -0.462  1.00  0.00     0.098 C 
BRANCH  25  26
HETATM   26  C   LIG     1       6.399   1.773   0.080  1.00  0.00     0.185 C 
HETATM   27  O   LIG     1       7.353   1.723   1.093  1.00  0.00    -0.647 OA
HETATM   28  O   LIG     1       6.047   2.886  -0.396  1.00  0.00    -0.647 OA
ENDBRANCH  25  26
ENDBRANCH  24  25
ENDBRANCH  22  24
ENDBRANCH  14  22
TORSDOF 4
