REMARK  2 active torsions:
REMARK  status: ('A' for Active; 'I' for Inactive)
REMARK    1  A    between atoms: C_21  and  C_23 
REMARK    2  A    between atoms: C_23  and  C_24 
ROOT
HETATM    1  O   LIG     1      -6.049  -2.044  -0.186  1.00  0.00    -0.287 OA
HETATM    2  C   LIG     1      -4.907  -1.571   0.054  1.00  0.00     0.195 C 
HETATM    3  C   LIG     1      -3.956  -2.316   0.882  1.00  0.00     0.038 C 
HETATM    4  C   LIG     1      -2.796  -1.760   1.238  1.00  0.00    -0.020 C 
HETATM    5  C   LIG     1      -2.504  -0.279   0.993  1.00  0.00     0.036 C 
HETATM    6  C   LIG     1      -2.991   0.468   2.256  1.00  0.00     0.009 C 
HETATM    7  C   LIG     1      -3.308   0.250  -0.220  1.00  0.00    -0.038 C 
HETATM    8  C   LIG     1      -2.734   1.348  -1.115  1.00  0.00     0.019 C 
HETATM    9  C   LIG     1      -2.861   2.727  -0.453  1.00  0.00     0.004 C 
HETATM   10  C   LIG     1      -1.270   1.048  -1.558  1.00  0.00     0.004 C 
HETATM   11  C   LIG     1      -0.615  -0.103  -0.759  1.00  0.00     0.004 C 
HETATM   12  C   LIG     1      -0.972   0.008   0.754  1.00  0.00     0.038 C 
HETATM   13  C   LIG     1       0.059  -0.750   1.649  1.00  0.00     0.153 C 
HETATM   14  O   LIG     1       0.112  -2.110   1.294  1.00  0.00    -0.223 OA
HETATM   15  C   LIG     1       1.487  -0.129   1.514  1.00  0.00     0.036 C 
HETATM   16  C   LIG     1       1.831   0.396   0.070  1.00  0.00     0.035 C 
HETATM   17  C   LIG     1       1.674   1.956   0.044  1.00  0.00     0.003 C 
HETATM   18  C   LIG     1       0.917  -0.282  -0.971  1.00  0.00     0.003 C 
HETATM   19  C   LIG     1       1.548   0.006  -2.326  1.00  0.00     0.003 C 
HETATM   20  C   LIG     1       3.061   0.056  -2.039  1.00  0.00     0.038 C 
HETATM   21  C   LIG     1       3.260   0.031  -0.493  1.00  0.00     0.180 C 
HETATM   22  O   LIG     1       4.217   1.010  -0.150  1.00  0.00    -0.218 OA
HETATM   23  C   LIG     1      -4.486  -0.307  -0.555  1.00  0.00     0.034 C 
ENDROOT
BRANCH  21  24
HETATM   24  C   LIG     1       3.782  -1.358  -0.077  1.00  0.00     0.211 C 
HETATM   25  O   LIG     1       3.127  -2.360  -0.323  1.00  0.00    -0.291 OA
BRANCH  24  26
HETATM   26  C   LIG     1       5.100  -1.536   0.629  1.00  0.00     0.249 C 
HETATM   27  O   LIG     1       4.959  -1.198   1.980  1.00  0.00    -0.212 OA
ENDBRANCH  24  26
ENDBRANCH  21  24
TORSDOF 2
