REMARK  0 active torsions:
REMARK  status: ('A' for Active; 'I' for Inactive)
ROOT
HETATM    1  O   LIG     1      -2.782   1.394   0.003  1.00  0.00    -0.190 OA
HETATM    2  C   LIG     1      -1.843   0.360   0.089  1.00  0.00     0.131 A 
HETATM    3  C   LIG     1      -0.442   0.560  -0.052  1.00  0.00     0.027 A 
HETATM    4  C   LIG     1       0.105   1.838  -0.291  1.00  0.00     0.002 A 
HETATM    5  C   LIG     1       1.480   2.011  -0.425  1.00  0.00     0.002 A 
HETATM    6  C   LIG     1       2.339   0.923  -0.325  1.00  0.00     0.027 A 
HETATM    7  C   LIG     1       1.843  -0.360  -0.089  1.00  0.00     0.131 A 
HETATM    8  O   LIG     1       2.782  -1.394  -0.003  1.00  0.00    -0.190 OA
HETATM    9  C   LIG     1       0.442  -0.560   0.052  1.00  0.00     0.027 A 
HETATM   10  C   LIG     1      -0.105  -1.838   0.291  1.00  0.00     0.002 A 
HETATM   11  C   LIG     1      -1.480  -2.011   0.425  1.00  0.00     0.002 A 
HETATM   12  C   LIG     1      -2.339  -0.923   0.325  1.00  0.00     0.027 A 
ENDROOT
TORSDOF 0
