REMARK  3 active torsions:
REMARK  status: ('A' for Active; 'I' for Inactive)
REMARK    1  A    between atoms: C_6  and  O_7 
REMARK    2  A    between atoms: C_9  and  O_10 
REMARK    3  A    between atoms: C_22  and  C_23 
ROOT
HETATM    1  O   LIG     1      -0.538  -1.665   3.385  1.00  0.00    -0.291 OA
HETATM    2  C   LIG     1      -0.247  -0.801   2.514  1.00  0.00     0.181 C 
HETATM    3  C   LIG     1      -1.070   0.463   2.399  1.00  0.00     0.116 C 
HETATM    4  C   LIG     1      -2.198   0.313   1.383  1.00  0.00     0.012 A 
HETATM    5  C   LIG     1      -2.974  -0.858   1.324  1.00  0.00     0.024 A 
HETATM    6  C   LIG     1      -4.008  -0.992   0.378  1.00  0.00     0.116 A 
HETATM    7  C   LIG     1      -4.290   0.067  -0.497  1.00  0.00     0.118 A 
HETATM    8  C   LIG     1      -3.543   1.256  -0.412  1.00  0.00     0.050 A 
HETATM    9  C   LIG     1      -2.523   1.388   0.531  1.00  0.00     0.093 A 
HETATM   10  O   LIG     1      -1.827   2.599   0.616  1.00  0.00    -0.328 OA
HETATM   11  C   LIG     1      -0.948   2.886   1.700  1.00  0.00     0.179 C 
HETATM   12  C   LIG     1      -0.128   1.644   2.042  1.00  0.00     0.163 C 
HETATM   13  O   LIG     1       0.710   1.316   0.928  1.00  0.00    -0.330 OA
HETATM   14  C   LIG     1       0.871  -1.026   1.580  1.00  0.00     0.057 A 
HETATM   15  C   LIG     1       1.298   0.056   0.785  1.00  0.00     0.095 A 
HETATM   16  C   LIG     1       2.311  -0.160  -0.150  1.00  0.00     0.025 A 
HETATM   17  C   LIG     1       2.921   0.804  -1.104  1.00  0.00     0.065 A 
HETATM   18  C   LIG     1       3.989  -0.068  -1.828  1.00  0.00     0.144 A 
HETATM   19  O   LIG     1       3.882  -1.371  -1.249  1.00  0.00    -0.329 OA
HETATM   20  C   LIG     1       2.903  -1.384  -0.280  1.00  0.00     0.092 A 
HETATM   21  C   LIG     1       2.523  -2.472   0.504  1.00  0.00     0.024 A 
HETATM   22  C   LIG     1       1.493  -2.289   1.443  1.00  0.00     0.007 A 
ENDROOT
BRANCH  18  23
HETATM   23  C   LIG     1       5.394   0.473  -1.648  1.00  0.00    -0.017 C 
HETATM   24  C   LIG     1       6.161   0.999  -2.832  1.00  0.00     0.029 C 
HETATM   25  C   LIG     1       5.969   0.494  -0.435  1.00  0.00    -0.007 C 
ENDBRANCH  18  23
BRANCH   6  26
HETATM   26  O   LIG     1      -4.779  -2.161   0.277  1.00  0.00    -0.326 OA
HETATM   27  C   LIG     1      -4.593  -3.323   1.078  1.00  0.00     0.181 C 
ENDBRANCH   6  26
BRANCH   7  28
HETATM   28  O   LIG     1      -5.323  -0.098  -1.433  1.00  0.00    -0.326 OA
HETATM   29  C   LIG     1      -5.747   0.905  -2.351  1.00  0.00     0.181 C 
ENDBRANCH   7  28
TORSDOF 3
