REMARK  5 active torsions:
REMARK  status: ('A' for Active; 'I' for Inactive)
REMARK    1  A    between atoms: N_12  and  C_13 
REMARK    2  A    between atoms: C_13  and  C_14 
REMARK    3  A    between atoms: C_14  and  C_16 
REMARK    4  A    between atoms: C_16  and  C_18 
REMARK    5  A    between atoms: C_18  and  C_20 
ROOT
HETATM    1  C   LIG     1      -1.559  -3.627  -0.325  1.00  0.00     0.031 C 
HETATM    2  C   LIG     1      -1.832  -2.166  -0.583  1.00  0.00    -0.024 A 
HETATM    3  C   LIG     1      -1.079  -1.193   0.096  1.00  0.00     0.014 A 
HETATM    4  C   LIG     1      -1.287   0.192  -0.112  1.00  0.00     0.079 A 
HETATM    5  C   LIG     1      -2.310   0.567  -1.032  1.00  0.00     0.097 A 
HETATM    6  N   LIG     1      -2.574   1.872  -1.282  1.00  0.00    -0.236 NA
HETATM    7  C   LIG     1      -1.877   2.851  -0.671  1.00  0.00     0.173 A 
HETATM    8  C   LIG     1      -2.123   4.202  -0.915  1.00  0.00     0.304 A 
HETATM    9  N   LIG     1      -1.381   5.147  -0.275  1.00  0.00    -0.150 NA
HETATM   10  O   LIG     1      -3.026   4.550  -1.723  1.00  0.00    -0.263 OA
HETATM   11  C   LIG     1      -0.817   2.494   0.278  1.00  0.00     0.171 A 
HETATM   12  N   LIG     1      -0.545   1.171   0.539  1.00  0.00    -0.308 N 
HETATM   13  N   LIG     1      -0.123   3.503   0.871  1.00  0.00    -0.172 NA
HETATM   14  C   LIG     1      -0.395   4.808   0.604  1.00  0.00     0.373 A 
HETATM   15  O   LIG     1       0.273   5.709   1.176  1.00  0.00    -0.242 OA
HETATM   16  C   LIG     1      -3.062  -0.401  -1.701  1.00  0.00     0.016 A 
HETATM   17  C   LIG     1      -2.832  -1.765  -1.493  1.00  0.00    -0.024 A 
HETATM   18  C   LIG     1      -3.669  -2.777  -2.233  1.00  0.00     0.031 C 
ENDROOT
BRANCH  12  19
HETATM   19  C   LIG     1       0.558   0.869   1.488  1.00  0.00     0.143 C 
BRANCH  19  20
HETATM   20  C   LIG     1       1.946   0.982   0.802  1.00  0.00     0.207 C 
HETATM   21  O   LIG     1       2.942   1.239   1.756  1.00  0.00    -0.218 OA
BRANCH  20  22
HETATM   22  C   LIG     1       2.329  -0.246  -0.060  1.00  0.00     0.217 C 
HETATM   23  O   LIG     1       3.429   0.095  -0.867  1.00  0.00    -0.218 OA
BRANCH  22  24
HETATM   24  C   LIG     1       2.624  -1.564   0.727  1.00  0.00     0.218 C 
HETATM   25  O   LIG     1       2.649  -2.636  -0.182  1.00  0.00    -0.218 OA
BRANCH  24  26
HETATM   26  C   LIG     1       3.961  -1.557   1.498  1.00  0.00     0.218 C 
HETATM   27  O   LIG     1       3.775  -1.061   2.795  1.00  0.00    -0.218 OA
ENDBRANCH  24  26
ENDBRANCH  22  24
ENDBRANCH  20  22
ENDBRANCH  19  20
ENDBRANCH  12  19
TORSDOF 5
