REMARK  8 active torsions:
REMARK  status: ('A' for Active; 'I' for Inactive)
REMARK    1  A    between atoms: C_2  and  O_3 
REMARK    2  A    between atoms: O_3  and  C_4 
REMARK    3  A    between atoms: C_4  and  C_5 
REMARK    4  A    between atoms: C_5  and  N_6 
REMARK    5  A    between atoms: N_9  and  C_12 
REMARK    6  A    between atoms: C_12  and  C_13 
REMARK    7  A    between atoms: C_13  and  C_14 
REMARK    8  A    between atoms: C_14  and  N_15 
ROOT
HETATM    1  N   LIG     1      -3.443   0.110   0.696  1.00  0.00    -0.327 N 
HETATM    2  C   LIG     1      -3.587  -1.192   0.084  1.00  0.00     0.066 A 
HETATM    3  C   LIG     1      -3.648  -1.291  -1.320  1.00  0.00     0.045 A 
HETATM    4  S   LIG     1      -3.224   0.137  -2.324  1.00  0.00    -0.084 SA
HETATM    5  C   LIG     1      -4.212   1.265  -1.338  1.00  0.00     0.045 A 
HETATM    6  C   LIG     1      -5.019   2.220  -1.964  1.00  0.00     0.009 A 
HETATM    7  C   LIG     1      -5.723   3.152  -1.196  1.00  0.00     0.012 A 
HETATM    8  C   LIG     1      -5.631   3.123   0.199  1.00  0.00     0.059 A 
HETATM    9  C   LIG     1      -4.846   2.152   0.830  1.00  0.00     0.029 A 
HETATM   10  C   LIG     1      -4.123   1.218   0.067  1.00  0.00     0.067 A 
HETATM   11 CL   LIG     1      -6.534   4.280   1.160  1.00  0.00    -0.082 Cl
HETATM   12  C   LIG     1      -3.956  -2.510  -1.931  1.00  0.00     0.008 A 
HETATM   13  C   LIG     1      -4.174  -3.647  -1.148  1.00  0.00     0.001 A 
HETATM   14  C   LIG     1      -4.090  -3.566   0.244  1.00  0.00     0.002 A 
HETATM   15  C   LIG     1      -3.806  -2.344   0.861  1.00  0.00     0.018 A 
ENDROOT
BRANCH   1  16
HETATM   16  C   LIG     1      -2.660   0.302   1.929  1.00  0.00     0.108 C 
BRANCH  16  17
HETATM   17  C   LIG     1      -1.208  -0.169   1.755  1.00  0.00     0.060 C 
BRANCH  17  18
HETATM   18  C   LIG     1      -0.476   0.633   0.656  1.00  0.00     0.252 C 
BRANCH  18  19
HETATM   19  N   LIG     1       0.963   0.313   0.524  1.00  0.00     0.141 N 
HETATM   20  C   LIG     1       1.798   0.933   1.573  1.00  0.00     0.285 C 
HETATM   21  C   LIG     1       3.228   0.348   1.583  1.00  0.00     0.286 C 
HETATM   22  N   LIG     1       3.606  -0.219   0.273  1.00  0.00     0.144 N 
HETATM   23  C   LIG     1       2.692  -1.316  -0.136  1.00  0.00     0.286 C 
HETATM   24  C   LIG     1       1.246  -1.121   0.362  1.00  0.00     0.285 C 
BRANCH  22  25
HETATM   25  C   LIG     1       3.750   0.823  -0.770  1.00  0.00     0.283 C 
BRANCH  25  26
HETATM   26  C   LIG     1       4.861   0.444  -1.747  1.00  0.00     0.187 C 
BRANCH  26  27
HETATM   27  O   LIG     1       6.097   0.328  -1.049  1.00  0.00    -0.300 OA
BRANCH  27  28
HETATM   28  C   LIG     1       7.294  -0.012  -1.685  1.00  0.00     0.272 C 
HETATM   29  C   LIG     1       8.550  -0.110  -0.888  1.00  0.00     0.106 C 
HETATM   30  O   LIG     1       7.323  -0.240  -2.924  1.00  0.00    -0.264 OA
ENDBRANCH  27  28
ENDBRANCH  26  27
ENDBRANCH  25  26
ENDBRANCH  22  25
ENDBRANCH  18  19
ENDBRANCH  17  18
ENDBRANCH  16  17
ENDBRANCH   1  16
TORSDOF 8
