REMARK  3 active torsions:
REMARK  status: ('A' for Active; 'I' for Inactive)
REMARK    1  A    between atoms: C_3  and  C_4 
REMARK    2  A    between atoms: C_3  and  C_11 
REMARK    3  A    between atoms: C_11  and  C_12 
ROOT
HETATM    1  C   LIG     1      -2.158  -3.020   1.410  1.00  0.00     0.031 C 
HETATM    2  C   LIG     1      -0.925  -2.721   0.610  1.00  0.00    -0.026 C 
HETATM    3  C   LIG     1      -0.593  -1.484   0.188  1.00  0.00    -0.005 C 
ENDROOT
BRANCH   3   4
HETATM    4  C   LIG     1      -1.393  -0.299   0.576  1.00  0.00    -0.000 A 
HETATM    5  C   LIG     1      -1.430   0.132   1.912  1.00  0.00     0.002 A 
HETATM    6  C   LIG     1      -2.148   1.280   2.261  1.00  0.00     0.027 A 
HETATM    7  C   LIG     1      -2.823   2.013   1.279  1.00  0.00     0.131 A 
HETATM    8  C   LIG     1      -2.775   1.595  -0.058  1.00  0.00     0.027 A 
HETATM    9  O   LIG     1      -3.534   3.155   1.641  1.00  0.00    -0.190 OA
HETATM   10  C   LIG     1      -2.058   0.447  -0.409  1.00  0.00     0.002 A 
ENDBRANCH   3   4
BRANCH   3  11
HETATM   11  C   LIG     1       0.608  -1.261  -0.668  1.00  0.00    -0.005 C 
HETATM   12  C   LIG     1       0.950  -2.143  -1.629  1.00  0.00    -0.026 C 
HETATM   13  C   LIG     1       2.187  -2.014  -2.469  1.00  0.00     0.031 C 
BRANCH  11  14
HETATM   14  C   LIG     1       1.395  -0.025  -0.444  1.00  0.00    -0.000 A 
HETATM   15  C   LIG     1       2.048   0.173   0.782  1.00  0.00     0.002 A 
HETATM   16  C   LIG     1       2.752   1.357   1.021  1.00  0.00     0.027 A 
HETATM   17  C   LIG     1       2.800   2.357   0.041  1.00  0.00     0.131 A 
HETATM   18  C   LIG     1       2.136   2.169  -1.177  1.00  0.00     0.027 A 
HETATM   19  O   LIG     1       3.498   3.541   0.267  1.00  0.00    -0.190 OA
HETATM   20  C   LIG     1       1.431   0.986  -1.417  1.00  0.00     0.002 A 
ENDBRANCH  11  14
ENDBRANCH   3  11
TORSDOF 3
