REMARK  6 active torsions:
REMARK  status: ('A' for Active; 'I' for Inactive)
REMARK    1  A    between atoms: C_2  and  C_6 
REMARK    2  A    between atoms: C_2  and  O_3 
REMARK    3  A    between atoms: O_3  and  C_4 
REMARK    4  A    between atoms: C_11  and  C_12 
REMARK    5  A    between atoms: C_12  and  O_13 
REMARK    6  A    between atoms: O_13  and  C_14 
ROOT
HETATM    1  C   LIG     1      -0.337  -0.965  -0.882  1.00  0.00     0.068 A 
HETATM    2  C   LIG     1      -1.104  -1.582  -1.886  1.00  0.00     0.005 A 
HETATM    3  C   LIG     1      -0.772  -2.853  -2.357  1.00  0.00     0.000 A 
HETATM    4  C   LIG     1       0.329  -3.526  -1.833  1.00  0.00     0.000 A 
HETATM    5  C   LIG     1       1.090  -2.942  -0.820  1.00  0.00     0.005 A 
HETATM    6  C   LIG     1       0.761  -1.669  -0.317  1.00  0.00     0.068 A 
ENDROOT
BRANCH   1   7
HETATM    7  C   LIG     1      -0.674   0.426  -0.510  1.00  0.00     0.296 C 
HETATM    8  O   LIG     1       0.241   1.250  -0.235  1.00  0.00    -0.259 OA
BRANCH   7   9
HETATM    9  O   LIG     1      -2.014   0.834  -0.511  1.00  0.00    -0.298 OA
BRANCH   9  10
HETATM   10  C   LIG     1      -2.429   2.170  -0.234  1.00  0.00     0.152 C 
HETATM   11  C   LIG     1      -2.165   3.074  -1.433  1.00  0.00     0.035 C 
ENDBRANCH   9  10
ENDBRANCH   7   9
ENDBRANCH   1   7
BRANCH   6  12
HETATM   12  C   LIG     1       1.530  -1.150   0.837  1.00  0.00     0.296 C 
HETATM   13  O   LIG     1       2.759  -1.418   0.941  1.00  0.00    -0.259 OA
BRANCH  12  14
HETATM   14  O   LIG     1       0.881  -0.417   1.838  1.00  0.00    -0.298 OA
BRANCH  14  15
HETATM   15  C   LIG     1       1.554   0.147   2.962  1.00  0.00     0.152 C 
HETATM   16  C   LIG     1       2.318   1.403   2.555  1.00  0.00     0.035 C 
ENDBRANCH  14  15
ENDBRANCH  12  14
ENDBRANCH   6  12
TORSDOF 6
