REMARK  8 active torsions:
REMARK  status: ('A' for Active; 'I' for Inactive)
REMARK    1  A    between atoms: C_2  and  C_3 
REMARK    2  A    between atoms: C_2  and  O_16 
REMARK    3  A    between atoms: C_8  and  C_9 
REMARK    4  A    between atoms: C_9  and  O_10 
REMARK    5  A    between atoms: O_10  and  C_11 
REMARK    6  A    between atoms: C_11  and  C_12 
REMARK    7  A    between atoms: O_16  and  C_17 
REMARK    8  A    between atoms: C_17  and  C_18 
ROOT
HETATM    1  C   LIG     1       0.337  -1.579  -1.186  1.00  0.00     0.068 A 
HETATM    2  C   LIG     1       1.120  -2.707  -0.884  1.00  0.00     0.005 A 
HETATM    3  C   LIG     1       0.591  -3.994  -0.996  1.00  0.00     0.000 A 
HETATM    4  C   LIG     1      -0.727  -4.173  -1.409  1.00  0.00     0.000 A 
HETATM    5  C   LIG     1      -1.529  -3.067  -1.691  1.00  0.00     0.005 A 
HETATM    6  C   LIG     1      -1.022  -1.760  -1.566  1.00  0.00     0.068 A 
ENDROOT
BRANCH   1   7
HETATM    7  C   LIG     1       0.992  -0.253  -1.152  1.00  0.00     0.296 C 
HETATM    8  O   LIG     1       0.689   0.630  -2.001  1.00  0.00    -0.259 OA
BRANCH   7   9
HETATM    9  O   LIG     1       1.992  -0.005  -0.206  1.00  0.00    -0.298 OA
BRANCH   9  10
HETATM   10  C   LIG     1       2.684   1.238  -0.125  1.00  0.00     0.152 C 
BRANCH  10  11
HETATM   11  C   LIG     1       3.718   1.188   1.010  1.00  0.00     0.030 C 
HETATM   12  C   LIG     1       4.376   2.560   1.194  1.00  0.00     0.003 C 
HETATM   13  C   LIG     1       4.783   0.118   0.738  1.00  0.00     0.003 C 
ENDBRANCH  10  11
ENDBRANCH   9  10
ENDBRANCH   7   9
ENDBRANCH   1   7
BRANCH   6  14
HETATM   14  C   LIG     1      -1.954  -0.625  -1.757  1.00  0.00     0.296 C 
HETATM   15  O   LIG     1      -2.898  -0.724  -2.589  1.00  0.00    -0.259 OA
BRANCH  14  16
HETATM   16  O   LIG     1      -1.816   0.531  -0.979  1.00  0.00    -0.298 OA
BRANCH  16  17
HETATM   17  C   LIG     1      -2.732   1.627  -1.006  1.00  0.00     0.152 C 
BRANCH  17  18
HETATM   18  C   LIG     1      -3.800   1.501   0.096  1.00  0.00     0.030 C 
HETATM   19  C   LIG     1      -4.730   0.304  -0.140  1.00  0.00     0.003 C 
HETATM   20  C   LIG     1      -3.157   1.421   1.486  1.00  0.00     0.003 C 
ENDBRANCH  17  18
ENDBRANCH  16  17
ENDBRANCH  14  16
ENDBRANCH   6  14
TORSDOF 8
