REMARK  0 active torsions:
REMARK  status: ('A' for Active; 'I' for Inactive)
ROOT
HETATM    1  O   LIG     1       0.244   2.650   0.499  1.00  0.00    -0.287 OA
HETATM    2  C   LIG     1       0.130   1.415   0.267  1.00  0.00     0.196 A 
HETATM    3  C   LIG     1      -1.215   0.797   0.192  1.00  0.00     0.042 A 
HETATM    4  C   LIG     1      -1.342  -0.585  -0.069  1.00  0.00     0.042 A 
HETATM    5  C   LIG     1      -2.624  -1.161  -0.138  1.00  0.00     0.003 A 
HETATM    6  C   LIG     1      -3.763  -0.375   0.049  1.00  0.00     0.000 A 
HETATM    7  C   LIG     1      -3.637   0.990   0.306  1.00  0.00     0.000 A 
HETATM    8  C   LIG     1      -2.372   1.576   0.378  1.00  0.00     0.003 A 
HETATM    9  C   LIG     1       1.342   0.585   0.069  1.00  0.00     0.042 A 
HETATM   10  C   LIG     1       2.624   1.161   0.138  1.00  0.00     0.003 A 
HETATM   11  C   LIG     1       3.763   0.375  -0.049  1.00  0.00     0.000 A 
HETATM   12  C   LIG     1       3.637  -0.990  -0.306  1.00  0.00     0.000 A 
HETATM   13  C   LIG     1       2.372  -1.576  -0.378  1.00  0.00     0.003 A 
HETATM   14  C   LIG     1       1.215  -0.797  -0.192  1.00  0.00     0.042 A 
HETATM   15  C   LIG     1      -0.130  -1.415  -0.267  1.00  0.00     0.196 A 
HETATM   16  O   LIG     1      -0.244  -2.650  -0.499  1.00  0.00    -0.287 OA
ENDROOT
TORSDOF 0
