REMARK  10 active torsions:
REMARK  status: ('A' for Active; 'I' for Inactive)
REMARK    1  A    between atoms: C_2  and  C_8 
REMARK    2  A    between atoms: C_2  and  O_3 
REMARK    3  A    between atoms: O_3  and  C_4 
REMARK    4  A    between atoms: C_4  and  C_5 
REMARK    5  A    between atoms: C_5  and  C_6 
REMARK    6  A    between atoms: C_13  and  C_14 
REMARK    7  A    between atoms: C_14  and  O_15 
REMARK    8  A    between atoms: O_15  and  C_16 
REMARK    9  A    between atoms: C_16  and  C_17 
REMARK   10  A    between atoms: C_17  and  C_18 
ROOT
HETATM    1  C   LIG     1       0.525  -1.352   0.459  1.00  0.00     0.068 A 
HETATM    2  C   LIG     1       1.277  -2.305   1.170  1.00  0.00     0.005 A 
HETATM    3  C   LIG     1       0.707  -3.517   1.561  1.00  0.00     0.000 A 
HETATM    4  C   LIG     1      -0.622  -3.796   1.250  1.00  0.00     0.000 A 
HETATM    5  C   LIG     1      -1.379  -2.876   0.526  1.00  0.00     0.005 A 
HETATM    6  C   LIG     1      -0.818  -1.658   0.100  1.00  0.00     0.068 A 
ENDROOT
BRANCH   1   7
HETATM    7  C   LIG     1       1.157  -0.043   0.176  1.00  0.00     0.296 C 
HETATM    8  O   LIG     1       0.470   1.014   0.197  1.00  0.00    -0.259 OA
BRANCH   7   9
HETATM    9  O   LIG     1       2.535   0.020  -0.056  1.00  0.00    -0.298 OA
BRANCH   9  10
HETATM   10  C   LIG     1       3.217   1.243  -0.309  1.00  0.00     0.152 C 
BRANCH  10  11
HETATM   11  C   LIG     1       4.703   0.961  -0.521  1.00  0.00     0.033 C 
BRANCH  11  12
HETATM   12  C   LIG     1       5.477   2.255  -0.797  1.00  0.00     0.003 C 
HETATM   13  C   LIG     1       6.962   1.973  -1.009  1.00  0.00     0.000 C 
ENDBRANCH  11  12
ENDBRANCH  10  11
ENDBRANCH   9  10
ENDBRANCH   7   9
ENDBRANCH   1   7
BRANCH   6  14
HETATM   14  C   LIG     1      -1.643  -0.780  -0.760  1.00  0.00     0.296 C 
HETATM   15  O   LIG     1      -1.109  -0.106  -1.683  1.00  0.00    -0.259 OA
BRANCH  14  16
HETATM   16  O   LIG     1      -3.029  -0.746  -0.578  1.00  0.00    -0.298 OA
BRANCH  16  17
HETATM   17  C   LIG     1      -3.891   0.066  -1.370  1.00  0.00     0.152 C 
BRANCH  17  18
HETATM   18  C   LIG     1      -5.344  -0.108  -0.919  1.00  0.00     0.033 C 
BRANCH  18  19
HETATM   19  C   LIG     1      -5.572   0.243   0.560  1.00  0.00     0.003 C 
HETATM   20  C   LIG     1      -5.399   1.734   0.848  1.00  0.00     0.000 C 
ENDBRANCH  18  19
ENDBRANCH  17  18
ENDBRANCH  16  17
ENDBRANCH  14  16
ENDBRANCH   6  14
TORSDOF 10
