REMARK  1 active torsions:
REMARK  status: ('A' for Active; 'I' for Inactive)
REMARK    1  A    between atoms: C_7  and  C_8 
ROOT
HETATM    1  C   LIG     1       0.039  -0.658  -0.135  1.00  0.00     0.081 C 
HETATM    2  C   LIG     1      -0.751   0.601  -0.277  1.00  0.00     0.036 A 
HETATM    3  C   LIG     1      -0.245   1.612  -1.117  1.00  0.00     0.014 A 
HETATM    4  C   LIG     1      -0.898   2.841  -1.232  1.00  0.00     0.058 A 
HETATM    5 CL   LIG     1      -0.246   4.085  -2.283  1.00  0.00    -0.082 Cl
HETATM    6  C   LIG     1      -2.061   3.083  -0.503  1.00  0.00     0.013 A 
HETATM    7  C   LIG     1      -2.580   2.095   0.333  1.00  0.00     0.020 A 
HETATM    8  C   LIG     1      -1.952   0.844   0.445  1.00  0.00     0.086 A 
HETATM    9  N   LIG     1      -2.534  -0.130   1.328  1.00  0.00    -0.208 NA
HETATM   10  C   LIG     1      -2.638  -1.522   1.010  1.00  0.00     0.310 C 
HETATM   11  O   LIG     1      -3.305  -2.280   1.766  1.00  0.00    -0.265 OA
HETATM   12  N   LIG     1      -0.527  -1.830  -0.114  1.00  0.00    -0.233 NA
HETATM   13  C   LIG     1      -1.962  -2.076  -0.209  1.00  0.00     0.335 C 
HETATM   14  O   LIG     1      -2.202  -3.454  -0.345  1.00  0.00    -0.186 OA
ENDROOT
BRANCH   1  15
HETATM   15  C   LIG     1       1.517  -0.587  -0.013  1.00  0.00     0.028 A 
HETATM   16  C   LIG     1       2.372  -1.443  -0.747  1.00  0.00     0.059 A 
HETATM   17 CL   LIG     1       1.756  -2.600  -1.923  1.00  0.00    -0.082 Cl
HETATM   18  C   LIG     1       3.760  -1.346  -0.587  1.00  0.00     0.011 A 
HETATM   19  C   LIG     1       4.307  -0.409   0.291  1.00  0.00     0.001 A 
HETATM   20  C   LIG     1       3.470   0.443   1.013  1.00  0.00     0.000 A 
HETATM   21  C   LIG     1       2.085   0.357   0.863  1.00  0.00     0.002 A 
ENDBRANCH   1  15
TORSDOF 1
