REMARK  0 active torsions:
REMARK  status: ('A' for Active; 'I' for Inactive)
ROOT
HETATM    1  C   LIG     1       0.732   0.318   0.018  1.00  0.00     0.000 A 
HETATM    2  C   LIG     1      -0.694   0.391  -0.050  1.00  0.00     0.000 A 
HETATM    3  C   LIG     1      -1.403   1.615  -0.142  1.00  0.00     0.000 A 
HETATM    4  C   LIG     1      -2.798   1.633  -0.206  1.00  0.00     0.000 A 
HETATM    5  C   LIG     1      -3.520   0.443  -0.180  1.00  0.00     0.000 A 
HETATM    6  C   LIG     1      -2.852  -0.776  -0.091  1.00  0.00     0.000 A 
HETATM    7  C   LIG     1      -1.450  -0.816  -0.026  1.00  0.00     0.000 A 
HETATM    8  C   LIG     1      -0.804  -2.053   0.064  1.00  0.00     0.000 A 
HETATM    9  C   LIG     1       0.582  -2.124   0.130  1.00  0.00     0.000 A 
HETATM   10  C   LIG     1       1.356  -0.959   0.108  1.00  0.00     0.000 A 
HETATM   11  C   LIG     1       2.755  -1.062   0.176  1.00  0.00     0.000 A 
HETATM   12  C   LIG     1       3.548   0.082   0.156  1.00  0.00     0.000 A 
HETATM   13  C   LIG     1       2.956   1.339   0.068  1.00  0.00     0.000 A 
HETATM   14  C   LIG     1       1.566   1.464  -0.001  1.00  0.00     0.000 A 
ENDROOT
TORSDOF 0
