REMARK  0 active torsions:
REMARK  status: ('A' for Active; 'I' for Inactive)
ROOT
HETATM    1  C   LIG     1       0.486   0.410   0.011  1.00  0.00     0.002 A 
HETATM    2  C   LIG     1      -0.899   0.067   0.073  1.00  0.00     0.018 A 
HETATM    3  C   LIG     1      -1.932   1.015   0.257  1.00  0.00     0.003 A 
HETATM    4  C   LIG     1      -3.266   0.609   0.307  1.00  0.00     0.021 A 
HETATM    5  C   LIG     1      -3.580  -0.740   0.176  1.00  0.00     0.099 A 
HETATM    6  N   LIG     1      -2.592  -1.652   0.000  1.00  0.00    -0.244 NA
HETATM    7  C   LIG     1      -1.280  -1.296  -0.055  1.00  0.00     0.081 A 
HETATM    8  C   LIG     1      -0.317  -2.288  -0.238  1.00  0.00     0.019 A 
HETATM    9  C   LIG     1       1.032  -1.958  -0.299  1.00  0.00     0.002 A 
HETATM   10  C   LIG     1       1.445  -0.626  -0.177  1.00  0.00     0.000 A 
HETATM   11  C   LIG     1       2.814  -0.321  -0.242  1.00  0.00     0.000 A 
HETATM   12  C   LIG     1       3.248   0.998  -0.123  1.00  0.00     0.000 A 
HETATM   13  C   LIG     1       2.324   2.023   0.062  1.00  0.00     0.000 A 
HETATM   14  C   LIG     1       0.958   1.740   0.129  1.00  0.00     0.000 A 
ENDROOT
TORSDOF 0
