REMARK  2 active torsions:
REMARK  status: ('A' for Active; 'I' for Inactive)
REMARK    1  A    between atoms: C_2  and  C_4 
REMARK    2  A    between atoms: C_4  and  C_5 
ROOT
HETATM    1  C   LIG     1      -0.064  -0.160  -0.308  1.00  0.00     0.011 A 
HETATM    2  C   LIG     1       0.852  -1.236  -0.215  1.00  0.00     0.055 A 
HETATM    3 CL   LIG     1       0.370  -2.910  -0.482  1.00  0.00    -0.083 Cl
HETATM    4  C   LIG     1       2.189  -0.994   0.114  1.00  0.00     0.012 A 
HETATM    5  C   LIG     1       2.632   0.303   0.361  1.00  0.00     0.013 A 
HETATM    6  C   LIG     1       1.744   1.377   0.289  1.00  0.00     0.068 A 
HETATM    7 CL   LIG     1       2.355   2.993   0.622  1.00  0.00    -0.082 Cl
HETATM    8  C   LIG     1       0.394   1.155  -0.041  1.00  0.00     0.066 A 
HETATM    9 CL   LIG     1      -0.709   2.534  -0.110  1.00  0.00    -0.082 Cl
ENDROOT
BRANCH   1  10
HETATM   10  C   LIG     1      -1.516  -0.412  -0.659  1.00  0.00     0.126 C 
BRANCH  10  11
HETATM   11  C   LIG     1      -2.346  -0.532   0.584  1.00  0.00     0.190 C 
HETATM   12  O   LIG     1      -2.194  -1.524   1.345  1.00  0.00    -0.647 OA
HETATM   13  O   LIG     1      -3.286   0.441   0.913  1.00  0.00    -0.647 OA
ENDBRANCH  10  11
ENDBRANCH   1  10
TORSDOF 2
