REMARK  0 active torsions:
REMARK  status: ('A' for Active; 'I' for Inactive)
ROOT
HETATM    1  O   LIG     1       2.249   2.052   0.588  1.00  0.00    -0.265 OA
HETATM    2  C   LIG     1       1.750   0.931   0.305  1.00  0.00     0.282 A 
HETATM    3  N   LIG     1       2.519  -0.249   0.074  1.00  0.00    -0.169 NA
HETATM    4  C   LIG     1       1.550  -1.257  -0.208  1.00  0.00     0.282 A 
HETATM    5  C   LIG     1       0.205  -0.695  -0.149  1.00  0.00     0.063 A 
HETATM    6  C   LIG     1      -1.041  -1.286  -0.349  1.00  0.00     0.005 A 
HETATM    7  C   LIG     1      -2.184  -0.475  -0.223  1.00  0.00     0.000 A 
HETATM    8  C   LIG     1      -2.058   0.894   0.098  1.00  0.00     0.000 A 
HETATM    9  C   LIG     1      -0.789   1.466   0.296  1.00  0.00     0.005 A 
HETATM   10  C   LIG     1       0.328   0.642   0.165  1.00  0.00     0.063 A 
HETATM   11  O   LIG     1       1.836  -2.455  -0.468  1.00  0.00    -0.265 OA
ENDROOT
TORSDOF 0
