REMARK  0 active torsions:
REMARK  status: ('A' for Active; 'I' for Inactive)
ROOT
HETATM    1  O   LIG     1      -2.599  -1.954  -0.242  1.00  0.00    -0.259 OA
HETATM    2  C   LIG     1      -2.032  -0.834  -0.151  1.00  0.00     0.303 A 
HETATM    3  O   LIG     1      -2.706   0.386  -0.120  1.00  0.00    -0.237 OA
HETATM    4  C   LIG     1      -0.595  -0.609  -0.064  1.00  0.00     0.069 A 
HETATM    5  C   LIG     1       0.477  -1.499  -0.057  1.00  0.00     0.005 A 
HETATM    6  C   LIG     1       1.775  -0.965   0.040  1.00  0.00     0.000 A 
HETATM    7  C   LIG     1       1.971   0.431   0.126  1.00  0.00     0.000 A 
HETATM    8  C   LIG     1       0.870   1.307   0.117  1.00  0.00     0.005 A 
HETATM    9  C   LIG     1      -0.405   0.751   0.020  1.00  0.00     0.069 A 
HETATM   10  C   LIG     1      -1.724   1.369  -0.015  1.00  0.00     0.303 A 
HETATM   11  O   LIG     1      -1.962   2.604   0.040  1.00  0.00    -0.259 OA
ENDROOT
TORSDOF 0
