REMARK  9 active torsions:
REMARK  status: ('A' for Active; 'I' for Inactive)
REMARK    1  A    between atoms: C_2  and  C_11 
REMARK    2  A    between atoms: C_2  and  O_3 
REMARK    3  A    between atoms: O_3  and  C_4 
REMARK    4  A    between atoms: C_4  and  C_5 
REMARK    5  A    between atoms: C_16  and  C_17 
REMARK    6  A    between atoms: C_17  and  O_18 
REMARK    7  A    between atoms: O_18  and  C_19 
REMARK    8  A    between atoms: C_19  and  C_20 
REMARK    9  A    between atoms: C_20  and  C_21 
ROOT
HETATM    1  C   LIG     1      -0.024   0.804  -1.159  1.00  0.00     0.068 A 
HETATM    2  C   LIG     1       0.060   2.175  -1.467  1.00  0.00     0.005 A 
HETATM    3  C   LIG     1      -0.664   2.714  -2.532  1.00  0.00     0.000 A 
HETATM    4  C   LIG     1      -1.478   1.894  -3.311  1.00  0.00     0.000 A 
HETATM    5  C   LIG     1      -1.586   0.535  -3.017  1.00  0.00     0.005 A 
HETATM    6  C   LIG     1      -0.886  -0.020  -1.933  1.00  0.00     0.068 A 
ENDROOT
BRANCH   1   7
HETATM    7  C   LIG     1       0.820   0.276  -0.057  1.00  0.00     0.296 C 
HETATM    8  O   LIG     1       1.096  -0.953   0.010  1.00  0.00    -0.259 OA
BRANCH   7   9
HETATM    9  O   LIG     1       1.332   1.159   0.902  1.00  0.00    -0.293 OA
BRANCH   9  10
HETATM   10  C   LIG     1       2.204   0.753   1.956  1.00  0.00     0.179 C 
BRANCH  10  11
HETATM   11  C   LIG     1       3.558   0.393   1.409  1.00  0.00     0.008 A 
HETATM   12  C   LIG     1       4.090  -0.894   1.599  1.00  0.00    -0.002 A 
HETATM   13  C   LIG     1       5.348  -1.219   1.083  1.00  0.00    -0.000 A 
HETATM   14  C   LIG     1       6.083  -0.264   0.375  1.00  0.00    -0.000 A 
HETATM   15  C   LIG     1       5.561   1.019   0.182  1.00  0.00    -0.000 A 
HETATM   16  C   LIG     1       4.304   1.348   0.698  1.00  0.00    -0.002 A 
ENDBRANCH  10  11
ENDBRANCH   9  10
ENDBRANCH   7   9
ENDBRANCH   1   7
BRANCH   6  17
HETATM   17  C   LIG     1      -1.097  -1.453  -1.639  1.00  0.00     0.296 C 
HETATM   18  O   LIG     1      -0.741  -2.307  -2.494  1.00  0.00    -0.259 OA
BRANCH  17  19
HETATM   19  O   LIG     1      -1.691  -1.897  -0.449  1.00  0.00    -0.298 OA
BRANCH  19  20
HETATM   20  C   LIG     1      -2.398  -1.060   0.467  1.00  0.00     0.152 C 
BRANCH  20  21
HETATM   21  C   LIG     1      -3.769  -0.675  -0.102  1.00  0.00     0.033 C 
BRANCH  21  22
HETATM   22  C   LIG     1      -4.511   0.340   0.780  1.00  0.00     0.003 C 
HETATM   23  C   LIG     1      -4.978  -0.259   2.106  1.00  0.00     0.000 C 
ENDBRANCH  21  22
ENDBRANCH  20  21
ENDBRANCH  19  20
ENDBRANCH  17  19
ENDBRANCH   6  17
TORSDOF 9
