REMARK  10 active torsions:
REMARK  status: ('A' for Active; 'I' for Inactive)
REMARK    1  A    between atoms: C_2  and  C_3 
REMARK    2  A    between atoms: C_3  and  C_4 
REMARK    3  A    between atoms: C_4  and  O_5 
REMARK    4  A    between atoms: O_5  and  C_6 
REMARK    5  A    between atoms: C_8  and  C_9 
REMARK       I    between atoms: C_9  and  N_10 
REMARK    6  A    between atoms: N_10  and  C_11 
REMARK    7  A    between atoms: C_11  and  C_12 
REMARK    8  A    between atoms: C_12  and  N_13 
REMARK    9  A    between atoms: N_13  and  C_14 
REMARK   10  A    between atoms: N_13  and  C_16 
ROOT
HETATM    1  C   LIG     1       2.325   0.049   0.935  1.00  0.00     0.178 A 
HETATM    2  C   LIG     1       1.048  -0.274   1.395  1.00  0.00     0.049 A 
HETATM    3  C   LIG     1       0.398  -1.426   0.926  1.00  0.00     0.062 A 
HETATM    4  C   LIG     1       1.076  -2.278   0.019  1.00  0.00     0.022 A 
HETATM    5  C   LIG     1       0.535  -3.502  -0.429  1.00  0.00     0.002 A 
HETATM    6  C   LIG     1       1.244  -4.300  -1.332  1.00  0.00     0.000 A 
HETATM    7  C   LIG     1       2.500  -3.900  -1.790  1.00  0.00     0.002 A 
HETATM    8  C   LIG     1       3.064  -2.707  -1.335  1.00  0.00     0.019 A 
HETATM    9  C   LIG     1       2.368  -1.901  -0.427  1.00  0.00     0.084 A 
HETATM   10  N   LIG     1       2.946  -0.764   0.038  1.00  0.00    -0.222 NA
ENDROOT
BRANCH   3  11
HETATM   11  C   LIG     1      -0.984  -1.680   1.383  1.00  0.00     0.275 C 
HETATM   12  N   LIG     1      -2.036  -1.899   0.432  1.00  0.00    -0.232 NA
HETATM   13  O   LIG     1      -1.241  -1.646   2.617  1.00  0.00    -0.266 OA
BRANCH  12  14
HETATM   14  C   LIG     1      -3.430  -2.098   0.826  1.00  0.00     0.164 C 
BRANCH  14  15
HETATM   15  C   LIG     1      -4.057  -0.786   1.321  1.00  0.00     0.276 C 
BRANCH  15  16
HETATM   16  N   LIG     1      -3.806   0.336   0.387  1.00  0.00     0.139 N 
BRANCH  16  17
HETATM   17  C   LIG     1      -4.425   0.181  -0.955  1.00  0.00     0.250 C 
HETATM   18  C   LIG     1      -5.928  -0.131  -0.927  1.00  0.00     0.037 C 
ENDBRANCH  16  17
BRANCH  16  19
HETATM   19  C   LIG     1      -4.086   1.656   0.994  1.00  0.00     0.250 C 
HETATM   20  C   LIG     1      -2.939   2.612   0.687  1.00  0.00     0.037 C 
ENDBRANCH  16  19
ENDBRANCH  15  16
ENDBRANCH  14  15
ENDBRANCH  12  14
ENDBRANCH   3  11
BRANCH   1  21
HETATM   21  O   LIG     1       2.953   1.206   1.409  1.00  0.00    -0.315 OA
BRANCH  21  22
HETATM   22  C   LIG     1       4.218   1.667   0.935  1.00  0.00     0.151 C 
BRANCH  22  23
HETATM   23  C   LIG     1       4.068   2.325  -0.443  1.00  0.00     0.033 C 
BRANCH  23  24
HETATM   24  C   LIG     1       5.420   2.676  -1.082  1.00  0.00     0.003 C 
HETATM   25  C   LIG     1       6.161   3.783  -0.333  1.00  0.00     0.000 C 
ENDBRANCH  23  24
ENDBRANCH  22  23
ENDBRANCH  21  22
ENDBRANCH   1  21
TORSDOF 10
