REMARK  2 active torsions:
REMARK  status: ('A' for Active; 'I' for Inactive)
REMARK    1  A    between atoms: C_9  and  O_10 
REMARK    2  A    between atoms: O_10  and  C_11 
ROOT
HETATM    1  C   LIG     1       3.031   0.561   0.994  1.00  0.00     0.007 C 
HETATM    2  C   LIG     1       3.783  -0.277   2.051  1.00  0.00     0.008 C 
HETATM    3  C   LIG     1       4.058  -1.640   1.412  1.00  0.00     0.065 C 
HETATM    4  C   LIG     1       1.472   0.564   1.186  1.00  0.00     0.005 C 
HETATM    5  C   LIG     1       0.853  -0.808   1.477  1.00  0.00     0.025 C 
HETATM    6  C   LIG     1      -0.599  -0.641   1.787  1.00  0.00    -0.035 C 
HETATM    7  C   LIG     1      -1.389   0.154   1.040  1.00  0.00    -0.047 C 
HETATM    8  C   LIG     1      -2.867  -0.155   1.041  1.00  0.00     0.052 C 
HETATM    9  C   LIG     1      -3.142  -1.097  -0.147  1.00  0.00     0.128 C 
HETATM   10  C   LIG     1      -2.584  -0.552  -1.484  1.00  0.00     0.031 C 
HETATM   11  C   LIG     1      -1.105  -0.092  -1.383  1.00  0.00     0.006 C 
HETATM   12  C   LIG     1      -0.824   0.881  -0.186  1.00  0.00     0.015 C 
HETATM   13  C   LIG     1      -1.598   2.210  -0.423  1.00  0.00     0.004 C 
HETATM   14  C   LIG     1       0.719   1.283   0.010  1.00  0.00     0.004 C 
HETATM   15  C   LIG     1       1.553   1.324  -1.302  1.00  0.00     0.001 C 
HETATM   16  C   LIG     1       2.411   0.067  -1.471  1.00  0.00     0.007 C 
HETATM   17  C   LIG     1       3.513   0.013  -0.381  1.00  0.00     0.052 C 
HETATM   18  C   LIG     1       4.770   0.776  -0.860  1.00  0.00     0.007 C 
HETATM   19  C   LIG     1       3.917  -1.388  -0.046  1.00  0.00     0.150 C 
HETATM   20  O   LIG     1       4.154  -2.240  -0.889  1.00  0.00    -0.296 OA
ENDROOT
BRANCH   9  21
HETATM   21  O   LIG     1      -4.532  -1.429  -0.248  1.00  0.00    -0.304 OA
BRANCH  21  22
HETATM   22  C   LIG     1      -5.575  -0.526  -0.504  1.00  0.00     0.272 C 
HETATM   23  C   LIG     1      -6.976  -1.031  -0.563  1.00  0.00     0.106 C 
HETATM   24  O   LIG     1      -5.355   0.707  -0.646  1.00  0.00    -0.264 OA
ENDBRANCH  21  22
ENDBRANCH   9  21
TORSDOF 2
