REMARK  5 active torsions:
REMARK  status: ('A' for Active; 'I' for Inactive)
REMARK    1  A    between atoms: C_2  and  C_3 
REMARK    2  A    between atoms: C_3  and  C_4 
REMARK    3  A    between atoms: C_4  and  C_5 
REMARK    4  A    between atoms: N_7  and  C_8 
REMARK    5  A    between atoms: N_14  and  C_15 
ROOT
HETATM    1  C   LIG     1       1.840  -0.118  -0.503  1.00  0.00     0.162 A 
HETATM    2  C   LIG     1       0.818  -1.133  -0.075  1.00  0.00     0.264 A 
HETATM    3  N   LIG     1      -0.484  -0.564   0.058  1.00  0.00    -0.211 N 
HETATM    4  N   LIG     1      -0.411   0.784  -0.317  1.00  0.00    -0.211 N 
HETATM    5  C   LIG     1       0.944   1.077  -0.652  1.00  0.00     0.264 A 
HETATM    6  O   LIG     1       1.341   2.219  -1.007  1.00  0.00    -0.270 OA
HETATM    7  O   LIG     1       1.051  -2.365   0.055  1.00  0.00    -0.270 OA
ENDROOT
BRANCH   3   8
HETATM    8  C   LIG     1      -1.702  -1.319   0.183  1.00  0.00     0.084 A 
HETATM    9  C   LIG     1      -1.812  -2.323   1.159  1.00  0.00     0.019 A 
HETATM   10  C   LIG     1      -2.999  -3.052   1.289  1.00  0.00     0.002 A 
HETATM   11  C   LIG     1      -4.080  -2.786   0.446  1.00  0.00     0.000 A 
HETATM   12  C   LIG     1      -3.977  -1.791  -0.531  1.00  0.00     0.002 A 
HETATM   13  C   LIG     1      -2.792  -1.061  -0.664  1.00  0.00     0.019 A 
ENDBRANCH   3   8
BRANCH   4  14
HETATM   14  C   LIG     1      -1.419   1.770  -0.037  1.00  0.00     0.084 A 
HETATM   15  C   LIG     1      -1.669   2.804  -0.954  1.00  0.00     0.019 A 
HETATM   16  C   LIG     1      -2.655   3.759  -0.688  1.00  0.00     0.002 A 
HETATM   17  C   LIG     1      -3.396   3.691   0.496  1.00  0.00     0.000 A 
HETATM   18  C   LIG     1      -3.150   2.667   1.415  1.00  0.00     0.002 A 
HETATM   19  C   LIG     1      -2.164   1.711   1.152  1.00  0.00     0.019 A 
ENDBRANCH   4  14
BRANCH   1  20
HETATM   20  C   LIG     1       2.916   0.135   0.572  1.00  0.00     0.027 C 
BRANCH  20  21
HETATM   21  C   LIG     1       3.900  -1.031   0.758  1.00  0.00     0.066 C 
BRANCH  21  22
HETATM   22  C   LIG     1       4.724  -1.284  -0.476  1.00  0.00     0.151 C 
HETATM   23  C   LIG     1       6.034  -0.583  -0.671  1.00  0.00     0.072 C 
HETATM   24  O   LIG     1       4.320  -2.064  -1.326  1.00  0.00    -0.296 OA
ENDBRANCH  21  22
ENDBRANCH  20  21
ENDBRANCH   1  20
TORSDOF 5
