REMARK  3 active torsions:
REMARK  status: ('A' for Active; 'I' for Inactive)
REMARK    1  A    between atoms: N_2  and  N_3 
REMARK    2  A    between atoms: N_3  and  C_4 
REMARK    3  A    between atoms: N_3  and  C_10 
ROOT
HETATM    1  N   LIG     1       0.030   0.821  -0.728  1.00  0.00    -0.206 N 
ENDROOT
BRANCH   1   2
HETATM    2  N   LIG     1       0.088   1.776  -1.761  1.00  0.00    -0.006 NA
HETATM    3  O   LIG     1       1.174   2.250  -2.154  1.00  0.00    -0.041 OA
ENDBRANCH   1   2
BRANCH   1   4
HETATM    4  C   LIG     1      -1.237   0.197  -0.428  1.00  0.00     0.085 A 
HETATM    5  C   LIG     1      -2.219   0.069  -1.429  1.00  0.00     0.019 A 
HETATM    6  C   LIG     1      -3.450  -0.528  -1.143  1.00  0.00     0.002 A 
HETATM    7  C   LIG     1      -3.719  -0.997   0.145  1.00  0.00     0.000 A 
HETATM    8  C   LIG     1      -2.758  -0.868   1.150  1.00  0.00     0.002 A 
HETATM    9  C   LIG     1      -1.524  -0.273   0.869  1.00  0.00     0.019 A 
ENDBRANCH   1   4
BRANCH   1  10
HETATM   10  C   LIG     1       1.223   0.463  -0.002  1.00  0.00     0.085 A 
HETATM   11  C   LIG     1       1.589  -0.886   0.141  1.00  0.00     0.019 A 
HETATM   12  C   LIG     1       2.743  -1.232   0.851  1.00  0.00     0.002 A 
HETATM   13  C   LIG     1       3.539  -0.235   1.422  1.00  0.00     0.000 A 
HETATM   14  C   LIG     1       3.181   1.109   1.286  1.00  0.00     0.002 A 
HETATM   15  C   LIG     1       2.027   1.459   0.577  1.00  0.00     0.019 A 
ENDBRANCH   1  10
TORSDOF 3
