REMARK  0 active torsions:
REMARK  status: ('A' for Active; 'I' for Inactive)
ROOT
HETATM    1  C   LIG     1      -0.707  -0.477  -0.132  1.00  0.00    -0.004 A 
HETATM    2  C   LIG     1      -1.572  -1.548  -0.359  1.00  0.00    -0.000 A 
HETATM    3  C   LIG     1      -2.948  -1.281  -0.454  1.00  0.00    -0.000 A 
HETATM    4  C   LIG     1      -3.428   0.038  -0.321  1.00  0.00    -0.000 A 
HETATM    5  C   LIG     1      -2.536   1.100  -0.092  1.00  0.00    -0.004 A 
HETATM    6  C   LIG     1      -1.172   0.819  -0.001  1.00  0.00    -0.018 A 
HETATM    7  C   LIG     1      -0.049   1.786   0.237  1.00  0.00     0.052 A 
HETATM    8  C   LIG     1       1.126   0.852   0.222  1.00  0.00    -0.018 A 
HETATM    9  C   LIG     1       0.733  -0.457   0.008  1.00  0.00    -0.004 A 
HETATM   10  C   LIG     1       1.655  -1.502  -0.046  1.00  0.00    -0.000 A 
HETATM   11  C   LIG     1       3.015  -1.195   0.125  1.00  0.00    -0.000 A 
HETATM   12  C   LIG     1       3.423   0.137   0.344  1.00  0.00    -0.000 A 
HETATM   13  C   LIG     1       2.474   1.172   0.394  1.00  0.00    -0.004 A 
ENDROOT
TORSDOF 0
