REMARK  0 active torsions:
REMARK  status: ('A' for Active; 'I' for Inactive)
ROOT
HETATM    1  C   LIG     1      -0.701  -0.356   0.201  1.00  0.00     0.019 A 
HETATM    2  C   LIG     1      -1.665  -1.251   0.663  1.00  0.00     0.002 A 
HETATM    3  C   LIG     1      -3.014  -0.867   0.559  1.00  0.00     0.000 A 
HETATM    4  C   LIG     1      -3.364   0.384   0.003  1.00  0.00     0.002 A 
HETATM    5  C   LIG     1      -2.369   1.267  -0.456  1.00  0.00     0.019 A 
HETATM    6  C   LIG     1      -1.039   0.867  -0.343  1.00  0.00     0.081 A 
HETATM    7  N   LIG     1       0.057   1.562  -0.721  1.00  0.00    -0.246 NA
HETATM    8  C   LIG     1       1.098   0.759  -0.407  1.00  0.00     0.081 A 
HETATM    9  C   LIG     1       0.672  -0.426   0.160  1.00  0.00     0.019 A 
HETATM   10  C   LIG     1       1.567  -1.414   0.566  1.00  0.00     0.002 A 
HETATM   11  C   LIG     1       2.939  -1.168   0.380  1.00  0.00     0.000 A 
HETATM   12  C   LIG     1       3.380   0.043  -0.200  1.00  0.00     0.002 A 
HETATM   13  C   LIG     1       2.453   1.023  -0.601  1.00  0.00     0.019 A 
ENDROOT
TORSDOF 0
