REMARK  2 active torsions:
REMARK  status: ('A' for Active; 'I' for Inactive)
REMARK    1  A    between atoms: C_2  and  C_3 
REMARK    2  A    between atoms: C_3  and  C_4 
ROOT
HETATM    1  C   LIG     1       0.828   0.590   0.496  1.00  0.00    -0.011 A 
HETATM    2  C   LIG     1       0.821   1.986   0.322  1.00  0.00    -0.004 A 
HETATM    3  C   LIG     1      -0.335   2.652  -0.082  1.00  0.00    -0.000 A 
HETATM    4  C   LIG     1      -1.508   1.941  -0.323  1.00  0.00    -0.000 A 
HETATM    5  C   LIG     1      -1.537   0.550  -0.161  1.00  0.00    -0.000 A 
HETATM    6  C   LIG     1      -2.725  -0.158  -0.406  1.00  0.00    -0.000 A 
HETATM    7  C   LIG     1      -2.765  -1.543  -0.245  1.00  0.00    -0.000 A 
HETATM    8  C   LIG     1      -1.624  -2.233   0.162  1.00  0.00    -0.000 A 
HETATM    9  C   LIG     1      -0.434  -1.545   0.411  1.00  0.00    -0.000 A 
HETATM   10  C   LIG     1      -0.366  -0.144   0.253  1.00  0.00    -0.003 A 
ENDROOT
BRANCH   1  11
HETATM   11  C   LIG     1       2.120  -0.072   0.924  1.00  0.00     0.124 C 
BRANCH  11  12
HETATM   12  C   LIG     1       2.747  -0.806  -0.221  1.00  0.00     0.190 C 
HETATM   13  O   LIG     1       3.032  -0.133  -1.405  1.00  0.00    -0.647 OA
HETATM   14  O   LIG     1       3.039  -2.026  -0.105  1.00  0.00    -0.647 OA
ENDBRANCH  11  12
ENDBRANCH   1  11
TORSDOF 2
