REMARK  2 active torsions:
REMARK  status: ('A' for Active; 'I' for Inactive)
REMARK    1  A    between atoms: C_2  and  C_3 
REMARK       I    between atoms: C_2  and  N_10 
REMARK    2  A    between atoms: N_10  and  C_11 
ROOT
HETATM    1  O   LIG     1      -0.190   0.654  -1.629  1.00  0.00    -0.265 OA
HETATM    2  C   LIG     1      -0.465   0.083  -0.539  1.00  0.00     0.281 C 
HETATM    3  N   LIG     1       0.589  -0.373   0.328  1.00  0.00    -0.208 NA
ENDROOT
BRANCH   2   4
HETATM    4  C   LIG     1      -1.879  -0.174  -0.194  1.00  0.00     0.083 A 
HETATM    5  C   LIG     1      -2.260  -1.465   0.214  1.00  0.00     0.007 A 
HETATM    6  C   LIG     1      -3.597  -1.755   0.497  1.00  0.00     0.000 A 
HETATM    7  C   LIG     1      -4.569  -0.763   0.372  1.00  0.00     0.002 A 
HETATM    8  C   LIG     1      -4.206   0.525  -0.027  1.00  0.00     0.028 A 
HETATM    9  C   LIG     1      -2.868   0.834  -0.301  1.00  0.00     0.136 A 
HETATM   10  O   LIG     1      -2.556   2.150  -0.649  1.00  0.00    -0.190 OA
ENDBRANCH   2   4
BRANCH   3  11
HETATM   11  C   LIG     1       1.977  -0.044   0.147  1.00  0.00     0.085 A 
HETATM   12  C   LIG     1       2.958  -0.982   0.505  1.00  0.00     0.019 A 
HETATM   13  C   LIG     1       4.315  -0.677   0.362  1.00  0.00     0.002 A 
HETATM   14  C   LIG     1       4.704   0.573  -0.126  1.00  0.00     0.000 A 
HETATM   15  C   LIG     1       3.736   1.523  -0.462  1.00  0.00     0.002 A 
HETATM   16  C   LIG     1       2.378   1.222  -0.321  1.00  0.00     0.019 A 
ENDBRANCH   3  11
TORSDOF 2
