REMARK  5 active torsions:
REMARK  status: ('A' for Active; 'I' for Inactive)
REMARK    1  A    between atoms: C_2  and  C_3 
REMARK    2  A    between atoms: C_2  and  O_10 
REMARK    3  A    between atoms: O_10  and  C_11 
REMARK    4  A    between atoms: C_11  and  C_12 
REMARK    5  A    between atoms: C_12  and  C_13 
ROOT
HETATM    1  O   LIG     1       1.673   2.271  -1.205  1.00  0.00    -0.259 OA
HETATM    2  C   LIG     1       1.294   1.291  -0.511  1.00  0.00     0.298 C 
ENDROOT
BRANCH   2   3
HETATM    3  C   LIG     1       2.293   0.299  -0.066  1.00  0.00     0.088 A 
HETATM    4  C   LIG     1       2.199  -1.022  -0.531  1.00  0.00     0.007 A 
HETATM    5  C   LIG     1       3.148  -1.975  -0.153  1.00  0.00     0.000 A 
HETATM    6  C   LIG     1       4.204  -1.615   0.685  1.00  0.00     0.002 A 
HETATM    7  C   LIG     1       4.313  -0.301   1.148  1.00  0.00     0.028 A 
HETATM    8  C   LIG     1       3.365   0.662   0.782  1.00  0.00     0.136 A 
HETATM    9  O   LIG     1       3.503   1.956   1.286  1.00  0.00    -0.190 OA
ENDBRANCH   2   3
BRANCH   2  10
HETATM   10  O   LIG     1      -0.064   1.175  -0.190  1.00  0.00    -0.298 OA
BRANCH  10  11
HETATM   11  C   LIG     1      -0.582   0.227   0.741  1.00  0.00     0.152 C 
BRANCH  11  12
HETATM   12  C   LIG     1      -2.081   0.459   0.953  1.00  0.00     0.033 C 
BRANCH  12  13
HETATM   13  C   LIG     1      -2.912   0.377  -0.349  1.00  0.00     0.003 C 
HETATM   14  C   LIG     1      -4.356   0.813  -0.075  1.00  0.00     0.000 C 
HETATM   15  C   LIG     1      -2.900  -1.036  -0.952  1.00  0.00     0.000 C 
ENDBRANCH  12  13
ENDBRANCH  11  12
ENDBRANCH  10  11
ENDBRANCH   2  10
TORSDOF 5
