REMARK  3 active torsions:
REMARK  status: ('A' for Active; 'I' for Inactive)
REMARK       I    between atoms: C_2  and  N_3 
REMARK    1  A    between atoms: C_2  and  O_6 
REMARK    2  A    between atoms: O_6  and  C_7 
REMARK    3  A    between atoms: N_12  and  C_13 
ROOT
HETATM    1  C   LIG     1       0.173   1.101  -0.004  1.00  0.00     0.190 A 
HETATM    2  C   LIG     1       0.171   2.484  -0.066  1.00  0.00     0.061 A 
HETATM    3  C   LIG     1       1.512   2.815  -0.082  1.00  0.00     0.083 A 
HETATM    4  C   LIG     1       2.067   4.200  -0.104  1.00  0.00     0.054 C 
HETATM    5  N   LIG     1       2.269   1.703  -0.016  1.00  0.00    -0.168 NA
HETATM    6  N   LIG     1       1.450   0.663   0.031  1.00  0.00    -0.208 N 
ENDROOT
BRANCH   1   7
HETATM    7  O   LIG     1      -0.939   0.245  -0.038  1.00  0.00    -0.241 OA
BRANCH   7   8
HETATM    8  C   LIG     1      -2.274   0.619   0.168  1.00  0.00     0.371 C 
HETATM    9  O   LIG     1      -2.563   1.773   0.587  1.00  0.00    -0.238 OA
HETATM   10  N   LIG     1      -3.319  -0.341  -0.062  1.00  0.00    -0.292 N 
HETATM   11  C   LIG     1      -4.718   0.037   0.152  1.00  0.00     0.131 C 
HETATM   12  C   LIG     1      -2.965  -1.691  -0.508  1.00  0.00     0.131 C 
ENDBRANCH   7   8
ENDBRANCH   1   7
BRANCH   6  13
HETATM   13  C   LIG     1       1.908  -0.701   0.083  1.00  0.00     0.085 A 
HETATM   14  C   LIG     1       3.116  -1.057  -0.543  1.00  0.00     0.019 A 
HETATM   15  C   LIG     1       3.575  -2.377  -0.498  1.00  0.00     0.002 A 
HETATM   16  C   LIG     1       2.841  -3.351   0.182  1.00  0.00     0.000 A 
HETATM   17  C   LIG     1       1.649  -3.006   0.822  1.00  0.00     0.002 A 
HETATM   18  C   LIG     1       1.185  -1.687   0.779  1.00  0.00     0.019 A 
ENDBRANCH   6  13
TORSDOF 3
