REMARK  0 active torsions:
REMARK  status: ('A' for Active; 'I' for Inactive)
ROOT
HETATM    1  I   LIG     1       1.855   2.635   0.045  1.00  0.00    -0.040 I 
HETATM    2  C   LIG     1       0.657   0.893   0.015  1.00  0.00     0.060 A 
HETATM    3  C   LIG     1       1.099  -0.417   0.005  1.00  0.00     0.117 A 
HETATM    4  N   LIG     1       0.050  -1.257  -0.013  1.00  0.00    -0.233 NA
HETATM    5  C   LIG     1      -1.063  -0.502  -0.015  1.00  0.00     0.117 A 
HETATM    6  I   LIG     1      -3.014  -1.307  -0.040  1.00  0.00    -0.021 I 
HETATM    7  C   LIG     1      -0.725   0.839   0.003  1.00  0.00     0.060 A 
HETATM    8  I   LIG     1      -2.057   2.482   0.009  1.00  0.00    -0.040 I 
HETATM    9  I   LIG     1       3.107  -1.066   0.015  1.00  0.00    -0.021 I 
ENDROOT
TORSDOF 0
