REMARK  2 active torsions:
REMARK  status: ('A' for Active; 'I' for Inactive)
REMARK    1  A    between atoms: C_2  and  C_3 
REMARK    2  A    between atoms: C_3  and  C_4 
ROOT
HETATM    1  C   LIG     1       0.828   0.012  -0.613  1.00  0.00     0.009 A 
HETATM    2  C   LIG     1       1.177   1.356  -0.715  1.00  0.00     0.095 A 
HETATM    3  N   LIG     1       0.124   2.143  -0.397  1.00  0.00    -0.244 NA
HETATM    4  C   LIG     1      -0.885   1.310  -0.093  1.00  0.00     0.081 A 
HETATM    5  C   LIG     1      -0.496  -0.001  -0.212  1.00  0.00     0.016 A 
HETATM    6  C   LIG     1      -1.371  -1.053   0.061  1.00  0.00     0.001 A 
HETATM    7  C   LIG     1      -2.681  -0.731   0.463  1.00  0.00     0.000 A 
HETATM    8  C   LIG     1      -3.082   0.618   0.582  1.00  0.00     0.002 A 
HETATM    9  C   LIG     1      -2.176   1.658   0.303  1.00  0.00     0.019 A 
ENDROOT
BRANCH   1  10
HETATM   10  C   LIG     1       1.724  -1.159  -0.880  1.00  0.00     0.126 C 
BRANCH  10  11
HETATM   11  C   LIG     1       2.762  -1.266   0.189  1.00  0.00     0.190 C 
HETATM   12  O   LIG     1       2.453  -1.894   1.392  1.00  0.00    -0.647 OA
HETATM   13  O   LIG     1       3.901  -0.756   0.018  1.00  0.00    -0.647 OA
ENDBRANCH  10  11
ENDBRANCH   1  10
TORSDOF 2
