REMARK  0 active torsions:
REMARK  status: ('A' for Active; 'I' for Inactive)
ROOT
HETATM    1 CL   LIG     1       1.046   2.877   0.157  1.00  0.00    -0.081 Cl
HETATM    2  C   LIG     1       0.444   1.222   0.067  1.00  0.00     0.079 A 
HETATM    3  C   LIG     1      -0.941   0.973   0.022  1.00  0.00     0.069 A 
HETATM    4 CL   LIG     1      -2.108   2.288   0.054  1.00  0.00    -0.082 Cl
HETATM    5  C   LIG     1      -1.412  -0.343  -0.050  1.00  0.00     0.012 A 
HETATM    6  C   LIG     1      -0.513  -1.412  -0.077  1.00  0.00     0.002 A 
HETATM    7  C   LIG     1       0.861  -1.171  -0.033  1.00  0.00     0.012 A 
HETATM    8  C   LIG     1       1.345   0.141   0.039  1.00  0.00     0.069 A 
HETATM    9 CL   LIG     1       3.085   0.398   0.093  1.00  0.00    -0.082 Cl
ENDROOT
TORSDOF 0
