REMARK  1 active torsions:
REMARK  status: ('A' for Active; 'I' for Inactive)
REMARK    1  A    between atoms: C_2  and  C_3 
ROOT
HETATM    1 CL   LIG     1       0.430   0.166   2.345  1.00  0.00    -0.080 Cl
HETATM    2  C   LIG     1       0.578   0.113   0.589  1.00  0.00     0.091 C 
HETATM    3  C   LIG     1       1.718  -0.288   0.005  1.00  0.00     0.126 C 
HETATM    4 CL   LIG     1       1.881  -0.382  -1.746  1.00  0.00    -0.069 Cl
HETATM    5 CL   LIG     1       3.108  -0.789   0.959  1.00  0.00    -0.069 Cl
ENDROOT
BRANCH   2   6
HETATM    6  C   LIG     1      -0.582   0.559  -0.206  1.00  0.00     0.091 C 
HETATM    7  C   LIG     1      -1.716  -0.158  -0.259  1.00  0.00     0.126 C 
HETATM    8 CL   LIG     1      -3.105   0.396  -1.184  1.00  0.00    -0.069 Cl
HETATM    9 CL   LIG     1      -1.869  -1.712   0.553  1.00  0.00    -0.069 Cl
HETATM   10 CL   LIG     1      -0.443   2.097  -1.056  1.00  0.00    -0.080 Cl
ENDBRANCH   2   6
TORSDOF 1
