REMARK  0 active torsions:
REMARK  status: ('A' for Active; 'I' for Inactive)
ROOT
HETATM    1  O   LIG     1       1.717  -0.618   1.462  1.00  0.00    -0.218 OA
HETATM    2  C   LIG     1       1.417  -0.008   0.233  1.00  0.00     0.215 C 
HETATM    3  C   LIG     1       0.852   1.396   0.490  1.00  0.00     0.181 C 
HETATM    4  O   LIG     1      -0.369   1.340   1.208  1.00  0.00    -0.324 OA
HETATM    5  C   LIG     1      -1.378   0.677   0.458  1.00  0.00     0.303 C 
HETATM    6  O   LIG     1      -1.678   1.377  -0.724  1.00  0.00    -0.187 OA
HETATM    7  C   LIG     1      -0.985  -0.782   0.151  1.00  0.00     0.244 C 
HETATM    8  O   LIG     1      -1.973  -1.382  -0.645  1.00  0.00    -0.215 OA
HETATM    9  C   LIG     1       0.388  -0.851  -0.545  1.00  0.00     0.220 C 
HETATM   10  O   LIG     1       0.278  -0.383  -1.866  1.00  0.00    -0.218 OA
ENDROOT
TORSDOF 0
