REMARK  0 active torsions:
REMARK  status: ('A' for Active; 'I' for Inactive)
ROOT
HETATM    1  O   LIG     1       2.267   1.216  -0.062  1.00  0.00    -0.188 OA
HETATM    2  C   LIG     1       1.027   0.571  -0.030  1.00  0.00     0.154 A 
HETATM    3  C   LIG     1      -0.138   1.344  -0.136  1.00  0.00     0.095 A 
HETATM    4 CL   LIG     1       0.004   3.094  -0.304  1.00  0.00    -0.079 Cl
HETATM    5  C   LIG     1      -1.401   0.730  -0.107  1.00  0.00     0.082 A 
HETATM    6 CL   LIG     1      -2.862   1.711  -0.241  1.00  0.00    -0.081 Cl
HETATM    7  C   LIG     1      -1.498  -0.666   0.028  1.00  0.00     0.081 A 
HETATM    8 CL   LIG     1      -3.084  -1.441   0.064  1.00  0.00    -0.081 Cl
HETATM    9  C   LIG     1      -0.332  -1.445   0.134  1.00  0.00     0.082 A 
HETATM   10 CL   LIG     1      -0.455  -3.198   0.303  1.00  0.00    -0.081 Cl
HETATM   11  C   LIG     1       0.932  -0.828   0.105  1.00  0.00     0.095 A 
HETATM   12 CL   LIG     1       2.392  -1.812   0.239  1.00  0.00    -0.079 Cl
ENDROOT
TORSDOF 0
