REMARK  0 active torsions:
REMARK  status: ('A' for Active; 'I' for Inactive)
ROOT
HETATM    1  C   LIG     1       2.110   0.464  -0.430  1.00  0.00     0.128 C 
HETATM    2  N   LIG     1       0.708   0.187  -0.142  1.00  0.00    -0.318 N 
HETATM    3  C   LIG     1      -0.273   1.166   0.126  1.00  0.00     0.234 A 
HETATM    4  C   LIG     1      -1.607   0.590   0.381  1.00  0.00     0.090 A 
HETATM    5  C   LIG     1      -1.373  -0.925   0.244  1.00  0.00     0.034 A 
HETATM    6  C   LIG     1       0.118  -1.137  -0.090  1.00  0.00     0.105 A 
HETATM    7  O   LIG     1      -0.026   2.401   0.143  1.00  0.00    -0.272 OA
ENDROOT
TORSDOF 0
