REMARK  1 active torsions:
REMARK  status: ('A' for Active; 'I' for Inactive)
REMARK    1  A    between atoms: C_2  and  C_3 
ROOT
HETATM    1  C   LIG     1       0.121   0.191  -0.419  1.00  0.00     0.007 A 
HETATM    2  C   LIG     1       0.817  -0.892   0.104  1.00  0.00     0.003 A 
HETATM    3  C   LIG     1       2.194  -0.661   0.213  1.00  0.00     0.007 A 
HETATM    4  C   LIG     1       2.584   0.597  -0.227  1.00  0.00     0.035 A 
HETATM    5  S   LIG     1       1.216   1.423  -0.751  1.00  0.00    -0.091 SA
ENDROOT
BRANCH   1   6
HETATM    6  C   LIG     1      -1.354   0.252  -0.672  1.00  0.00     0.033 C 
HETATM    7  C   LIG     1      -2.138   0.192   0.635  1.00  0.00     0.006 C 
ENDBRANCH   1   6
TORSDOF 1
