REMARK  0 active torsions:
REMARK  status: ('A' for Active; 'I' for Inactive)
ROOT
HETATM    1 CL   LIG     1       0.004  -2.801   0.034  1.00  0.00    -0.083 Cl
HETATM    2  C   LIG     1      -0.026  -1.033   0.012  1.00  0.00     0.050 A 
HETATM    3  C   LIG     1      -1.260  -0.347  -0.009  1.00  0.00    -0.009 A 
HETATM    4  C   LIG     1      -2.562  -1.101  -0.014  1.00  0.00     0.032 C 
HETATM    5  C   LIG     1      -1.271   1.057  -0.026  1.00  0.00     0.024 A 
HETATM    6  C   LIG     1      -0.076   1.777  -0.022  1.00  0.00     0.130 A 
HETATM    7  O   LIG     1      -0.114   3.170  -0.040  1.00  0.00    -0.190 OA
HETATM    8  C   LIG     1       1.147   1.098  -0.001  1.00  0.00     0.024 A 
HETATM    9  C   LIG     1       1.184  -0.305   0.016  1.00  0.00    -0.009 A 
HETATM   10  C   LIG     1       2.511  -1.013   0.039  1.00  0.00     0.032 C 
ENDROOT
TORSDOF 0
