REMARK  3 active torsions:
REMARK  status: ('A' for Active; 'I' for Inactive)
REMARK    1  A    between atoms: C_2  and  C_4 
REMARK    2  A    between atoms: C_4  and  C_7 
REMARK    3  A    between atoms: C_4  and  C_5 
ROOT
HETATM    1  C   LIG     1       0.019   0.015  -0.186  1.00  0.00     0.087 C 
ENDROOT
BRANCH   1   2
HETATM    2  C   LIG     1      -0.433   0.770   1.039  1.00  0.00     0.185 C 
HETATM    3  O   LIG     1      -0.376   0.232   2.178  1.00  0.00    -0.647 OA
HETATM    4  O   LIG     1      -0.916   2.068   0.910  1.00  0.00    -0.647 OA
ENDBRANCH   1   2
BRANCH   1   5
HETATM    5  C   LIG     1      -0.833  -1.256  -0.394  1.00  0.00     0.011 C 
HETATM    6  C   LIG     1      -2.299  -0.934  -0.685  1.00  0.00     0.001 C 
ENDBRANCH   1   5
BRANCH   1   7
HETATM    7  C   LIG     1       1.515  -0.351  -0.086  1.00  0.00     0.011 C 
HETATM    8  C   LIG     1       2.417   0.883  -0.065  1.00  0.00     0.001 C 
ENDBRANCH   1   7
TORSDOF 3
