REMARK  0 active torsions:
REMARK  status: ('A' for Active; 'I' for Inactive)
ROOT
HETATM    1  O   LIG     1      -2.519   0.191  -0.047  1.00  0.00    -0.188 OA
HETATM    2  C   LIG     1      -1.126   0.106  -0.018  1.00  0.00     0.152 A 
HETATM    3  C   LIG     1      -0.461  -1.125  -0.195  1.00  0.00     0.085 A 
HETATM    4 CL   LIG     1      -1.345  -2.621  -0.463  1.00  0.00    -0.080 Cl
HETATM    5  C   LIG     1       0.938  -1.172  -0.160  1.00  0.00     0.025 A 
HETATM    6  C   LIG     1       1.679  -0.005   0.051  1.00  0.00     0.060 A 
HETATM    7 CL   LIG     1       3.431  -0.074   0.094  1.00  0.00    -0.082 Cl
HETATM    8  C   LIG     1       1.022   1.216   0.227  1.00  0.00     0.025 A 
HETATM    9  C   LIG     1      -0.375   1.274   0.194  1.00  0.00     0.085 A 
HETATM   10 CL   LIG     1      -1.177   2.821   0.418  1.00  0.00    -0.080 Cl
ENDROOT
TORSDOF 0
