REMARK  1 active torsions:
REMARK  status: ('A' for Active; 'I' for Inactive)
REMARK    1  A    between atoms: C_2  and  C_4 
ROOT
HETATM    1  C   LIG     1       0.063   0.267   0.055  1.00  0.00     0.071 A 
HETATM    2  C   LIG     1      -0.705   1.414   0.237  1.00  0.00     0.042 A 
HETATM    3  S   LIG     1      -2.322   0.988   0.075  1.00  0.00    -0.086 SA
HETATM    4  C   LIG     1      -2.069  -0.645  -0.226  1.00  0.00     0.036 A 
HETATM    5  C   LIG     1      -0.702  -0.881  -0.204  1.00  0.00     0.014 A 
ENDROOT
BRANCH   1   6
HETATM    6  C   LIG     1       1.534   0.257   0.125  1.00  0.00     0.211 C 
HETATM    7  O   LIG     1       2.166   1.322   0.361  1.00  0.00    -0.644 OA
HETATM    8  O   LIG     1       2.233  -0.931  -0.069  1.00  0.00    -0.644 OA
ENDBRANCH   1   6
TORSDOF 1
