REMARK  1 active torsions:
REMARK  status: ('A' for Active; 'I' for Inactive)
REMARK    1  A    between atoms: C_2  and  C_3 
ROOT
HETATM    1  C   LIG     1       0.222   0.274  -0.116  1.00  0.00     0.164 A 
HETATM    2  C   LIG     1      -0.442  -0.847   0.343  1.00  0.00     0.033 A 
HETATM    3  C   LIG     1      -1.782  -0.526   0.299  1.00  0.00     0.029 A 
HETATM    4  C   LIG     1      -1.852   0.766  -0.182  1.00  0.00     0.123 A 
HETATM    5  O   LIG     1      -0.641   1.216  -0.420  1.00  0.00    -0.299 OA
ENDROOT
BRANCH   1   6
HETATM    6  C   LIG     1       1.674   0.416  -0.252  1.00  0.00     0.235 C 
HETATM    7  O   LIG     1       2.162   1.494  -0.685  1.00  0.00    -0.642 OA
HETATM    8  O   LIG     1       2.516  -0.636   0.096  1.00  0.00    -0.642 OA
ENDBRANCH   1   6
TORSDOF 1
