REMARK  1 active torsions:
REMARK  status: ('A' for Active; 'I' for Inactive)
REMARK    1  A    between atoms: C_2  and  C_3 
ROOT
HETATM    1  C   LIG     1       0.543  -0.219  -0.094  1.00  0.00     0.070 A 
HETATM    2  C   LIG     1      -0.421  -1.104  -0.616  1.00  0.00     0.006 A 
HETATM    3  C   LIG     1      -1.777  -0.773  -0.599  1.00  0.00     0.000 A 
HETATM    4  C   LIG     1      -2.192   0.447  -0.068  1.00  0.00     0.000 A 
HETATM    5  C   LIG     1      -1.251   1.343   0.439  1.00  0.00     0.006 A 
HETATM    6  C   LIG     1       0.114   1.026   0.430  1.00  0.00     0.036 A 
HETATM    7  I   LIG     1       1.431   2.539   1.133  1.00  0.00    -0.043 I 
ENDROOT
BRANCH   1   8
HETATM    8  C   LIG     1       1.966  -0.631  -0.112  1.00  0.00     0.211 C 
HETATM    9  O   LIG     1       2.851  -0.186   0.866  1.00  0.00    -0.644 OA
HETATM   10  O   LIG     1       2.380  -1.429  -0.996  1.00  0.00    -0.644 OA
ENDBRANCH   1   8
TORSDOF 1
