REMARK  2 active torsions:
REMARK  status: ('A' for Active; 'I' for Inactive)
REMARK    1  A    between atoms: C_2  and  C_3 
REMARK    2  A    between atoms: C_8  and  C_9 
ROOT
HETATM    1  C   LIG     1      -0.606  -0.236   0.291  1.00  0.00     0.057 A 
HETATM    2  C   LIG     1      -1.772   0.413  -0.154  1.00  0.00     0.004 A 
HETATM    3  C   LIG     1      -1.699   1.448  -1.088  1.00  0.00     0.000 A 
HETATM    4  C   LIG     1      -0.464   1.851  -1.589  1.00  0.00     0.000 A 
HETATM    5  C   LIG     1       0.704   1.215  -1.167  1.00  0.00     0.004 A 
HETATM    6  C   LIG     1       0.653   0.164  -0.233  1.00  0.00     0.057 A 
ENDROOT
BRANCH   1   7
HETATM    7  C   LIG     1      -0.733  -1.269   1.347  1.00  0.00     0.266 C 
HETATM    8  N   LIG     1      -1.810  -2.208   1.326  1.00  0.00    -0.057 NA
HETATM    9  O   LIG     1       0.100  -1.311   2.292  1.00  0.00    -0.271 OA
ENDBRANCH   1   7
BRANCH   6  10
HETATM   10  C   LIG     1       1.915  -0.533   0.115  1.00  0.00     0.266 C 
HETATM   11  N   LIG     1       3.127   0.200   0.304  1.00  0.00    -0.057 NA
HETATM   12  O   LIG     1       1.932  -1.789   0.222  1.00  0.00    -0.271 OA
ENDBRANCH   6  10
TORSDOF 2
