REMARK  2 active torsions:
REMARK  status: ('A' for Active; 'I' for Inactive)
REMARK    1  A    between atoms: C_2  and  C_3 
REMARK    2  A    between atoms: C_8  and  C_9 
ROOT
HETATM    1  C   LIG     1      -0.632  -0.443  -0.068  1.00  0.00     0.070 A 
HETATM    2  C   LIG     1      -1.553   0.619  -0.016  1.00  0.00     0.006 A 
HETATM    3  C   LIG     1      -1.113   1.938   0.110  1.00  0.00     0.000 A 
HETATM    4  C   LIG     1       0.249   2.216   0.184  1.00  0.00     0.000 A 
HETATM    5  C   LIG     1       1.179   1.176   0.143  1.00  0.00     0.006 A 
HETATM    6  C   LIG     1       0.758  -0.161   0.025  1.00  0.00     0.070 A 
ENDROOT
BRANCH   1   7
HETATM    7  C   LIG     1      -1.151  -1.814  -0.289  1.00  0.00     0.211 C 
HETATM    8  O   LIG     1      -2.321  -2.247   0.333  1.00  0.00    -0.644 OA
HETATM    9  O   LIG     1      -0.552  -2.599  -1.071  1.00  0.00    -0.644 OA
ENDBRANCH   1   7
BRANCH   6  10
HETATM   10  C   LIG     1       1.784  -1.229   0.073  1.00  0.00     0.211 C 
HETATM   11  O   LIG     1       3.011  -1.074  -0.568  1.00  0.00    -0.644 OA
HETATM   12  O   LIG     1       1.568  -2.285   0.725  1.00  0.00    -0.644 OA
ENDBRANCH   6  10
TORSDOF 2
