REMARK  5 active torsions:
REMARK  status: ('A' for Active; 'I' for Inactive)
REMARK    1  A    between atoms: C_2  and  N_5 
REMARK    2  A    between atoms: N_5  and  C_6 
REMARK    3  A    between atoms: C_8  and  S_9 
REMARK    4  A    between atoms: C_12  and  N_13 
REMARK    5  A    between atoms: N_13  and  C_14 
ROOT
HETATM    1  C   LIG     1      -0.045  -0.090  -0.421  1.00  0.00     0.763 A 
HETATM    2  N   LIG     1      -0.232   1.254  -0.448  1.00  0.00    -0.033 NA
HETATM    3  C   LIG     1       0.831   2.095  -0.416  1.00  0.00     0.226 A 
HETATM    4  N   LIG     1       2.091   1.595  -0.360  1.00  0.00    -0.033 NA
HETATM    5  C   LIG     1       2.289   0.252  -0.333  1.00  0.00     0.763 A 
HETATM    6  N   LIG     1       1.219  -0.586  -0.366  1.00  0.00     0.134 NA
ENDROOT
BRANCH   1   7
HETATM    7  N   LIG     1      -1.159  -0.999  -0.448  1.00  0.00    -0.089 NA
BRANCH   7   8
HETATM    8  C   LIG     1      -2.584  -0.613  -0.477  1.00  0.00     0.103 C 
HETATM    9  C   LIG     1      -3.447  -1.892  -0.485  1.00  0.00     0.025 C 
HETATM   10  C   LIG     1      -2.944   0.209   0.776  1.00  0.00     0.025 C 
HETATM   11  C   LIG     1      -2.896   0.191  -1.756  1.00  0.00     0.025 C 
ENDBRANCH   7   8
ENDBRANCH   1   7
BRANCH   5  12
HETATM   12  N   LIG     1       3.623  -0.268  -0.277  1.00  0.00    -0.085 NA
BRANCH  12  13
HETATM   13  C   LIG     1       3.916  -1.699  -0.221  1.00  0.00     0.145 C 
HETATM   14  C   LIG     1       3.632  -2.252   1.171  1.00  0.00     0.029 C 
ENDBRANCH  12  13
ENDBRANCH   5  12
BRANCH   3  15
HETATM   15  S   LIG     1       0.571   3.864  -0.447  1.00  0.00    -0.073 SA
HETATM   16  C   LIG     1       0.443   3.990   1.364  1.00  0.00     0.077 C 
ENDBRANCH   3  15
TORSDOF 5
