REMARK  1 active torsions:
REMARK  status: ('A' for Active; 'I' for Inactive)
REMARK    1  A    between atoms: C_2  and  C_3 
ROOT
HETATM    1  C   LIG     1      -0.725  -0.436   0.193  1.00  0.00     0.030 C 
HETATM    2  C   LIG     1      -0.013  -1.488  -0.717  1.00  0.00     0.003 C 
HETATM    3  C   LIG     1       1.240  -0.919  -1.389  1.00  0.00     0.000 C 
HETATM    4  C   LIG     1       2.311  -0.530  -0.344  1.00  0.00     0.003 C 
HETATM    5  C   LIG     1       3.260   0.528  -0.920  1.00  0.00     0.000 C 
HETATM    6  C   LIG     1       1.687  -0.059   0.994  1.00  0.00     0.033 C 
HETATM    7  C   LIG     1       0.303   0.583   0.788  1.00  0.00     0.152 C 
HETATM    8  O   LIG     1      -0.168   1.059   2.024  1.00  0.00    -0.224 OA
ENDROOT
BRANCH   1   9
HETATM    9  C   LIG     1      -1.915   0.265  -0.554  1.00  0.00     0.002 C 
HETATM   10  C   LIG     1      -2.468   1.488   0.205  1.00  0.00     0.000 C 
HETATM   11  C   LIG     1      -3.086  -0.711  -0.794  1.00  0.00     0.000 C 
ENDBRANCH   1   9
TORSDOF 1
