REMARK  1 active torsions:
REMARK  status: ('A' for Active; 'I' for Inactive)
REMARK    1  A    between atoms: C_3  and  C_4 
ROOT
HETATM    1  O   LIG     1      -0.649   1.890   1.009  1.00  0.00    -0.190 OA
HETATM    2  C   LIG     1       0.116   0.871   0.439  1.00  0.00     0.130 A 
HETATM    3  C   LIG     1      -0.503  -0.136  -0.329  1.00  0.00     0.036 A 
HETATM    4  C   LIG     1       0.280  -1.171  -0.868  1.00  0.00     0.000 A 
HETATM    5  C   LIG     1       1.663  -1.186  -0.670  1.00  0.00    -0.000 A 
HETATM    6  C   LIG     1       2.275  -0.177   0.076  1.00  0.00     0.002 A 
HETATM    7  C   LIG     1       1.505   0.847   0.631  1.00  0.00     0.027 A 
ENDROOT
BRANCH   3   8
HETATM    8  C   LIG     1      -1.997  -0.154  -0.522  1.00  0.00     0.211 C 
HETATM    9  O   LIG     1      -2.610  -0.861   0.521  1.00  0.00    -0.215 OA
ENDBRANCH   3   8
TORSDOF 1
