REMARK  1 active torsions:
REMARK  status: ('A' for Active; 'I' for Inactive)
REMARK    1  A    between atoms: C_2  and  C_3 
ROOT
HETATM    1  C   LIG     1       0.115  -0.190  -0.317  1.00  0.00     0.003 A 
HETATM    2  C   LIG     1      -0.421  -1.475  -0.112  1.00  0.00    -0.002 A 
HETATM    3  C   LIG     1      -1.769  -1.640   0.212  1.00  0.00    -0.000 A 
HETATM    4  C   LIG     1      -2.601  -0.527   0.334  1.00  0.00     0.002 A 
HETATM    5  C   LIG     1      -2.087   0.754   0.130  1.00  0.00     0.027 A 
HETATM    6  C   LIG     1      -0.738   0.937  -0.198  1.00  0.00     0.127 A 
HETATM    7  O   LIG     1      -0.286   2.243  -0.404  1.00  0.00    -0.191 OA
ENDROOT
BRANCH   1   8
HETATM    8  C   LIG     1       1.582  -0.055  -0.652  1.00  0.00     0.029 C 
HETATM    9  C   LIG     1       2.387   0.392   0.567  1.00  0.00     0.005 C 
ENDBRANCH   1   8
TORSDOF 1
