REMARK  1 active torsions:
REMARK  status: ('A' for Active; 'I' for Inactive)
REMARK    1  A    between atoms: C_2  and  C_3 
ROOT
HETATM    1  C   LIG     1       0.669  -0.397   0.111  1.00  0.00     0.068 A 
HETATM    2  C   LIG     1       0.378   0.942  -0.265  1.00  0.00     0.134 A 
HETATM    3  O   LIG     1       1.368   1.906  -0.468  1.00  0.00    -0.190 OA
HETATM    4  C   LIG     1      -0.957   1.343  -0.410  1.00  0.00     0.028 A 
HETATM    5  C   LIG     1      -2.000   0.455  -0.145  1.00  0.00     0.002 A 
HETATM    6  C   LIG     1      -1.719  -0.847   0.268  1.00  0.00     0.000 A 
HETATM    7  C   LIG     1      -0.395  -1.270   0.397  1.00  0.00     0.005 A 
ENDROOT
BRANCH   1   8
HETATM    8  C   LIG     1       2.042  -0.941   0.192  1.00  0.00     0.236 C 
HETATM    9  O   LIG     1       2.985  -0.467  -0.494  1.00  0.00    -0.283 OA
ENDBRANCH   1   8
TORSDOF 1
