REMARK  1 active torsions:
REMARK  status: ('A' for Active; 'I' for Inactive)
REMARK    1  A    between atoms: O_2  and  C_3 
ROOT
HETATM    1  C   LIG     1       0.255   0.280  -0.002  1.00  0.00     0.119 A 
HETATM    2  C   LIG     1       0.095  -1.117  -0.106  1.00  0.00     0.026 A 
HETATM    3  C   LIG     1      -1.177  -1.690  -0.023  1.00  0.00     0.002 A 
HETATM    4  C   LIG     1      -2.299  -0.881   0.163  1.00  0.00     0.002 A 
HETATM    5  C   LIG     1      -2.152   0.504   0.267  1.00  0.00     0.029 A 
HETATM    6  C   LIG     1      -0.883   1.088   0.186  1.00  0.00     0.153 A 
HETATM    7  O   LIG     1      -0.772   2.474   0.294  1.00  0.00    -0.188 OA
ENDROOT
BRANCH   1   8
HETATM    8  O   LIG     1       1.517   0.891  -0.081  1.00  0.00    -0.326 OA
HETATM    9  C   LIG     1       2.742   0.191  -0.269  1.00  0.00     0.181 C 
ENDBRANCH   1   8
TORSDOF 1
