REMARK  0 active torsions:
REMARK  status: ('A' for Active; 'I' for Inactive)
ROOT
HETATM    1 BR   LIG     1       1.294   3.304  -0.122  1.00  0.00    -0.049 Br
HETATM    2  C   LIG     1       1.208   1.386  -0.057  1.00  0.00     0.035 A 
HETATM    3  C   LIG     1       2.419   0.685  -0.043  1.00  0.00     0.007 A 
HETATM    4  C   LIG     1       2.433  -0.709   0.004  1.00  0.00     0.001 A 
HETATM    5  C   LIG     1       1.235  -1.423   0.038  1.00  0.00     0.000 A 
HETATM    6  C   LIG     1       0.008  -0.743   0.025  1.00  0.00     0.000 A 
HETATM    7  C   LIG     1      -1.197  -1.462   0.059  1.00  0.00     0.000 A 
HETATM    8  C   LIG     1      -2.418  -0.788   0.047  1.00  0.00     0.000 A 
HETATM    9  C   LIG     1      -2.449   0.607  -0.000  1.00  0.00     0.000 A 
HETATM   10  C   LIG     1      -1.258   1.338  -0.035  1.00  0.00     0.001 A 
HETATM   11  C   LIG     1      -0.015   0.676  -0.023  1.00  0.00     0.006 A 
ENDROOT
TORSDOF 0
