REMARK  0 active torsions:
REMARK  status: ('A' for Active; 'I' for Inactive)
ROOT
HETATM    1  O   LIG     1      -2.156  -1.984  -0.040  1.00  0.00    -0.190 OA
HETATM    2  C   LIG     1      -1.557  -0.729   0.103  1.00  0.00     0.131 A 
HETATM    3  C   LIG     1      -2.393   0.344   0.434  1.00  0.00     0.027 A 
HETATM    4  C   LIG     1      -1.878   1.630   0.595  1.00  0.00     0.002 A 
HETATM    5  C   LIG     1      -0.515   1.865   0.429  1.00  0.00     0.000 A 
HETATM    6  C   LIG     1       0.349   0.811   0.098  1.00  0.00     0.002 A 
HETATM    7  C   LIG     1       1.720   1.060  -0.067  1.00  0.00     0.000 A 
HETATM    8  C   LIG     1       2.589   0.020  -0.396  1.00  0.00     0.000 A 
HETATM    9  C   LIG     1       2.099  -1.274  -0.563  1.00  0.00     0.000 A 
HETATM   10  C   LIG     1       0.736  -1.541  -0.403  1.00  0.00     0.002 A 
HETATM   11  C   LIG     1      -0.164  -0.506  -0.070  1.00  0.00     0.025 A 
ENDROOT
TORSDOF 0
