REMARK  0 active torsions:
REMARK  status: ('A' for Active; 'I' for Inactive)
ROOT
HETATM    1  C   LIG     1      -1.330   2.315  -0.220  1.00  0.00     0.031 C 
HETATM    2  C   LIG     1      -1.128   0.830  -0.054  1.00  0.00    -0.022 A 
HETATM    3  C   LIG     1       0.167   0.248  -0.035  1.00  0.00    -0.004 A 
HETATM    4  C   LIG     1       1.339   1.024  -0.170  1.00  0.00    -0.000 A 
HETATM    5  C   LIG     1       2.598   0.418  -0.147  1.00  0.00    -0.000 A 
HETATM    6  C   LIG     1       2.712  -0.963   0.010  1.00  0.00    -0.000 A 
HETATM    7  C   LIG     1       1.569  -1.750   0.145  1.00  0.00    -0.000 A 
HETATM    8  C   LIG     1       0.295  -1.159   0.124  1.00  0.00    -0.000 A 
HETATM    9  C   LIG     1      -0.849  -1.956   0.260  1.00  0.00    -0.000 A 
HETATM   10  C   LIG     1      -2.116  -1.375   0.240  1.00  0.00    -0.000 A 
HETATM   11  C   LIG     1      -2.256   0.003   0.085  1.00  0.00    -0.004 A 
ENDROOT
TORSDOF 0
