REMARK  0 active torsions:
REMARK  status: ('A' for Active; 'I' for Inactive)
ROOT
HETATM    1 CL   LIG     1       1.146   3.161  -0.533  1.00  0.00    -0.082 Cl
HETATM    2  C   LIG     1       1.151   1.420  -0.261  1.00  0.00     0.058 A 
HETATM    3  C   LIG     1      -0.041   0.676  -0.105  1.00  0.00     0.011 A 
HETATM    4  C   LIG     1      -1.310   1.287  -0.158  1.00  0.00     0.001 A 
HETATM    5  C   LIG     1      -2.470   0.523  -0.000  1.00  0.00     0.000 A 
HETATM    6  C   LIG     1      -2.383  -0.853   0.212  1.00  0.00     0.000 A 
HETATM    7  C   LIG     1      -1.136  -1.478   0.269  1.00  0.00     0.000 A 
HETATM    8  C   LIG     1       0.039  -0.726   0.113  1.00  0.00     0.001 A 
HETATM    9  C   LIG     1       1.291  -1.354   0.170  1.00  0.00     0.000 A 
HETATM   10  C   LIG     1       2.459  -0.607   0.014  1.00  0.00     0.001 A 
HETATM   11  C   LIG     1       2.390   0.770  -0.200  1.00  0.00     0.011 A 
ENDROOT
TORSDOF 0
