REMARK  0 active torsions:
REMARK  status: ('A' for Active; 'I' for Inactive)
ROOT
HETATM    1  C   LIG     1       1.785  -0.377   0.902  1.00  0.00     0.221 C 
HETATM    2  C   LIG     1       1.634  -1.569  -0.077  1.00  0.00     0.033 C 
HETATM    3  C   LIG     1       2.785  -1.603  -1.081  1.00  0.00     0.004 C 
HETATM    4  C   LIG     1       2.873  -0.275  -1.827  1.00  0.00     0.035 C 
HETATM    5  C   LIG     1       3.036   0.884  -0.838  1.00  0.00     0.250 C 
HETATM    6  N   LIG     1       1.969   0.914   0.184  1.00  0.00     0.135 N 
HETATM    7  C   LIG     1       0.705   1.510  -0.297  1.00  0.00     0.252 C 
HETATM    8  C   LIG     1      -0.321   1.698   0.867  1.00  0.00     0.065 C 
HETATM    9  C   LIG     1      -1.637   0.908   0.618  1.00  0.00     0.221 C 
HETATM   10  C   LIG     1      -2.408   1.441  -0.624  1.00  0.00     0.033 C 
HETATM   11  C   LIG     1      -2.643   0.353  -1.677  1.00  0.00     0.004 C 
HETATM   12  C   LIG     1      -3.269  -0.896  -1.048  1.00  0.00     0.035 C 
HETATM   13  C   LIG     1      -2.584  -1.307   0.272  1.00  0.00     0.250 C 
HETATM   14  N   LIG     1      -1.341  -0.544   0.503  1.00  0.00     0.135 N 
HETATM   15  C   LIG     1      -0.649  -1.054   1.709  1.00  0.00     0.252 C 
HETATM   16  C   LIG     1       0.277   1.207   2.196  1.00  0.00     0.008 C 
HETATM   17  C   LIG     1       0.658  -0.266   1.998  1.00  0.00     0.065 C 
ENDROOT
TORSDOF 0
