REMARK  1 active torsions:
REMARK  status: ('A' for Active; 'I' for Inactive)
REMARK    1  A    between atoms: C_7  and  C_8 
ROOT
HETATM    1  O   LIG     1      -0.843  -0.857   2.104  1.00  0.00    -0.190 OA
HETATM    2  C   LIG     1      -1.460  -0.362   0.954  1.00  0.00     0.131 A 
HETATM    3  C   LIG     1      -2.860  -0.296   0.889  1.00  0.00     0.027 A 
HETATM    4  C   LIG     1      -3.490   0.227  -0.242  1.00  0.00     0.002 A 
HETATM    5  C   LIG     1      -2.727   0.688  -1.316  1.00  0.00     0.000 A 
HETATM    6  C   LIG     1      -1.333   0.623  -1.264  1.00  0.00     0.002 A 
HETATM    7  C   LIG     1      -0.684   0.091  -0.135  1.00  0.00     0.025 A 
ENDROOT
BRANCH   7   8
HETATM    8  C   LIG     1       0.797   0.021  -0.105  1.00  0.00     0.002 A 
HETATM    9  C   LIG     1       1.451  -1.174   0.246  1.00  0.00     0.000 A 
HETATM   10  C   LIG     1       2.848  -1.236   0.262  1.00  0.00     0.000 A 
HETATM   11  C   LIG     1       3.604  -0.111  -0.076  1.00  0.00     0.000 A 
HETATM   12  C   LIG     1       2.964   1.078  -0.434  1.00  0.00     0.000 A 
HETATM   13  C   LIG     1       1.568   1.145  -0.452  1.00  0.00     0.000 A 
ENDBRANCH   7   8
TORSDOF 1
