REMARK  2 active torsions:
REMARK  status: ('A' for Active; 'I' for Inactive)
REMARK    1  A    between atoms: C_2  and  C_9 
REMARK    2  A    between atoms: C_2  and  C_3 
ROOT
HETATM    1  O   LIG     1       0.544  -2.170  -1.312  1.00  0.00    -0.214 OA
HETATM    2  C   LIG     1       0.217  -1.417  -0.171  1.00  0.00     0.197 C 
ENDROOT
BRANCH   2   3
HETATM    3  C   LIG     1       1.271  -0.369   0.127  1.00  0.00     0.012 A 
HETATM    4  C   LIG     1       1.412   0.116   1.438  1.00  0.00    -0.002 A 
HETATM    5  C   LIG     1       2.361   1.101   1.731  1.00  0.00    -0.000 A 
HETATM    6  C   LIG     1       3.171   1.616   0.717  1.00  0.00    -0.000 A 
HETATM    7  C   LIG     1       3.033   1.149  -0.593  1.00  0.00    -0.000 A 
HETATM    8  C   LIG     1       2.086   0.164  -0.891  1.00  0.00    -0.002 A 
ENDBRANCH   2   3
BRANCH   2   9
HETATM    9  C   LIG     1      -1.125  -0.755  -0.374  1.00  0.00     0.012 A 
HETATM   10  C   LIG     1      -1.361   0.053  -1.502  1.00  0.00    -0.002 A 
HETATM   11  C   LIG     1      -2.601   0.673  -1.681  1.00  0.00    -0.000 A 
HETATM   12  C   LIG     1      -3.616   0.493  -0.738  1.00  0.00    -0.000 A 
HETATM   13  C   LIG     1      -3.393  -0.306   0.386  1.00  0.00    -0.000 A 
HETATM   14  C   LIG     1      -2.154  -0.928   0.570  1.00  0.00    -0.002 A 
ENDBRANCH   2   9
TORSDOF 2
