REMARK  0 active torsions:
REMARK  status: ('A' for Active; 'I' for Inactive)
ROOT
HETATM    1  N   LIG     1       3.153   1.645   0.192  1.00  0.00    -0.191 NA
HETATM    2  C   LIG     1       2.094   1.183   0.128  1.00  0.00     0.102 C 
HETATM    3  C   LIG     1       0.773   0.606   0.048  1.00  0.00     0.078 A 
HETATM    4  C   LIG     1      -0.339   1.459  -0.013  1.00  0.00     0.011 A 
HETATM    5  C   LIG     1      -1.630   0.929  -0.091  1.00  0.00     0.001 A 
HETATM    6  C   LIG     1      -1.819  -0.455  -0.108  1.00  0.00     0.001 A 
HETATM    7  C   LIG     1      -0.718  -1.313  -0.048  1.00  0.00     0.011 A 
HETATM    8  C   LIG     1       0.582  -0.792   0.030  1.00  0.00     0.078 A 
HETATM    9  C   LIG     1       1.699  -1.704   0.091  1.00  0.00     0.102 C 
HETATM   10  N   LIG     1       2.595  -2.436   0.140  1.00  0.00    -0.191 NA
ENDROOT
TORSDOF 0
