REMARK  0 active torsions:
REMARK  status: ('A' for Active; 'I' for Inactive)
ROOT
HETATM    1  C   LIG     1      -0.179   0.593   0.144  1.00  0.00     0.136 A 
HETATM    2  N   LIG     1       0.958   1.326   0.273  1.00  0.00    -0.238 NA
HETATM    3  C   LIG     1       2.178   0.752   0.096  1.00  0.00     0.120 A 
HETATM    4  C   LIG     1       2.264  -0.608  -0.223  1.00  0.00     0.121 A 
HETATM    5  N   LIG     1       1.125  -1.342  -0.352  1.00  0.00    -0.222 NA
HETATM    6  C   LIG     1      -0.095  -0.772  -0.175  1.00  0.00     0.183 A 
HETATM    7  N   LIG     1      -1.229  -1.508  -0.305  1.00  0.00    -0.203 NA
HETATM    8  C   LIG     1      -2.450  -0.935  -0.128  1.00  0.00     0.201 A 
HETATM    9  N   LIG     1      -2.549   0.386   0.182  1.00  0.00    -0.221 NA
HETATM   10  C   LIG     1      -1.440   1.161   0.321  1.00  0.00     0.123 A 
ENDROOT
TORSDOF 0
