REMARK  0 active torsions:
REMARK  status: ('A' for Active; 'I' for Inactive)
ROOT
HETATM    1  C   LIG     1       0.006  -0.581   0.007  1.00  0.00     0.018 A 
HETATM    2  C   LIG     1       1.137  -1.407   0.020  1.00  0.00     0.003 A 
HETATM    3  C   LIG     1       2.412  -0.837   0.016  1.00  0.00     0.021 A 
HETATM    4  C   LIG     1       2.544   0.554  -0.001  1.00  0.00     0.099 A 
HETATM    5  N   LIG     1       1.439   1.347  -0.013  1.00  0.00    -0.244 NA
HETATM    6  C   LIG     1       0.183   0.822  -0.009  1.00  0.00     0.081 A 
HETATM    7  C   LIG     1      -0.933   1.666  -0.022  1.00  0.00     0.019 A 
HETATM    8  C   LIG     1      -2.221   1.122  -0.019  1.00  0.00     0.002 A 
HETATM    9  C   LIG     1      -2.399  -0.266  -0.002  1.00  0.00     0.000 A 
HETATM   10  C   LIG     1      -1.290  -1.118   0.011  1.00  0.00     0.002 A 
ENDROOT
TORSDOF 0
