REMARK  0 active torsions:
REMARK  status: ('A' for Active; 'I' for Inactive)
ROOT
HETATM    1  C   LIG     1       0.080  -0.695  -0.113  1.00  0.00     0.000 A 
HETATM    2  C   LIG     1      -1.053  -1.508  -0.272  1.00  0.00     0.000 A 
HETATM    3  C   LIG     1      -2.332  -0.948  -0.208  1.00  0.00     0.000 A 
HETATM    4  C   LIG     1      -2.490   0.423   0.014  1.00  0.00     0.000 A 
HETATM    5  C   LIG     1      -1.370   1.244   0.174  1.00  0.00     0.000 A 
HETATM    6  C   LIG     1      -0.080   0.695   0.113  1.00  0.00     0.000 A 
HETATM    7  C   LIG     1       1.053   1.508   0.272  1.00  0.00     0.000 A 
HETATM    8  C   LIG     1       2.332   0.948   0.208  1.00  0.00     0.000 A 
HETATM    9  C   LIG     1       2.490  -0.423  -0.014  1.00  0.00     0.000 A 
HETATM   10  C   LIG     1       1.370  -1.244  -0.174  1.00  0.00     0.000 A 
ENDROOT
TORSDOF 0
