REMARK  0 active torsions:
REMARK  status: ('A' for Active; 'I' for Inactive)
ROOT
HETATM    1 CL   LIG     1       3.954  -1.430  -0.342  1.00  0.00    -0.082 Cl
HETATM    2  C   LIG     1       2.412  -0.607  -0.201  1.00  0.00     0.058 A 
HETATM    3  C   LIG     1       1.222  -1.343  -0.222  1.00  0.00     0.011 A 
HETATM    4  C   LIG     1      -0.014  -0.688  -0.109  1.00  0.00     0.001 A 
HETATM    5  C   LIG     1      -1.214  -1.415  -0.129  1.00  0.00     0.000 A 
HETATM    6  C   LIG     1      -2.439  -0.750  -0.015  1.00  0.00     0.000 A 
HETATM    7  C   LIG     1      -2.475   0.641   0.118  1.00  0.00     0.000 A 
HETATM    8  C   LIG     1      -1.287   1.377   0.140  1.00  0.00     0.000 A 
HETATM    9  C   LIG     1      -0.051   0.722   0.027  1.00  0.00     0.000 A 
HETATM   10  C   LIG     1       1.149   1.449   0.047  1.00  0.00     0.001 A 
HETATM   11  C   LIG     1       2.374   0.785  -0.067  1.00  0.00     0.011 A 
ENDROOT
TORSDOF 0
