REMARK  0 active torsions:
REMARK  status: ('A' for Active; 'I' for Inactive)
ROOT
HETATM    1  C   LIG     1      -3.270  -0.771  -0.054  1.00  0.00     0.031 C 
HETATM    2  C   LIG     1      -1.884  -0.200   0.004  1.00  0.00    -0.022 A 
HETATM    3  C   LIG     1      -0.777  -1.050  -0.138  1.00  0.00    -0.004 A 
HETATM    4  C   LIG     1       0.526  -0.532  -0.086  1.00  0.00    -0.000 A 
HETATM    5  C   LIG     1       1.639  -1.376  -0.228  1.00  0.00    -0.000 A 
HETATM    6  C   LIG     1       2.932  -0.848  -0.174  1.00  0.00    -0.000 A 
HETATM    7  C   LIG     1       3.125   0.522   0.021  1.00  0.00     0.000 A 
HETATM    8  C   LIG     1       2.026   1.374   0.163  1.00  0.00    -0.000 A 
HETATM    9  C   LIG     1       0.722   0.857   0.111  1.00  0.00    -0.000 A 
HETATM   10  C   LIG     1      -0.388   1.701   0.253  1.00  0.00    -0.000 A 
HETATM   11  C   LIG     1      -1.682   1.176   0.200  1.00  0.00    -0.004 A 
ENDROOT
TORSDOF 0
