REMARK  0 active torsions:
REMARK  status: ('A' for Active; 'I' for Inactive)
ROOT
HETATM    1  O   LIG     1      -3.511  -1.396  -0.439  1.00  0.00    -0.259 OA
HETATM    2  C   LIG     1      -2.436  -0.769  -0.256  1.00  0.00     0.300 A 
HETATM    3  C   LIG     1      -2.468   0.590   0.076  1.00  0.00     0.069 A 
HETATM    4  C   LIG     1      -1.265   1.266   0.275  1.00  0.00     0.007 A 
HETATM    5  C   LIG     1      -0.058   0.574   0.139  1.00  0.00     0.023 A 
HETATM    6  C   LIG     1       1.179   1.207   0.328  1.00  0.00     0.002 A 
HETATM    7  C   LIG     1       2.364   0.478   0.183  1.00  0.00     0.000 A 
HETATM    8  C   LIG     1       2.319  -0.880  -0.151  1.00  0.00     0.002 A 
HETATM    9  C   LIG     1       1.089  -1.517  -0.342  1.00  0.00     0.025 A 
HETATM   10  C   LIG     1      -0.103  -0.798  -0.198  1.00  0.00     0.103 A 
HETATM   11  O   LIG     1      -1.273  -1.405  -0.380  1.00  0.00    -0.273 OA
ENDROOT
TORSDOF 0
