REMARK  3 active torsions:
REMARK  status: ('A' for Active; 'I' for Inactive)
REMARK    1  A    between atoms: C_2  and  N_3 
REMARK    2  A    between atoms: N_3  and  C_10 
REMARK    3  A    between atoms: N_3  and  C_4 
ROOT
HETATM    1  C   LIG     1       0.467  -0.034  -0.442  1.00  0.00     0.056 A 
HETATM    2  C   LIG     1       1.371  -0.269   0.605  1.00  0.00     0.017 A 
HETATM    3  C   LIG     1       2.733  -0.430   0.333  1.00  0.00     0.002 A 
HETATM    4  C   LIG     1       3.197  -0.357  -0.984  1.00  0.00     0.000 A 
HETATM    5  C   LIG     1       2.300  -0.122  -2.031  1.00  0.00     0.002 A 
HETATM    6  C   LIG     1       0.937   0.040  -1.761  1.00  0.00     0.017 A 
ENDROOT
BRANCH   1   7
HETATM    7  N   LIG     1      -0.931   0.133  -0.168  1.00  0.00    -0.348 N 
BRANCH   7   8
HETATM    8  C   LIG     1      -1.476   1.488  -0.020  1.00  0.00     0.102 C 
HETATM    9  C   LIG     1      -1.021   2.112   1.295  1.00  0.00     0.026 C 
ENDBRANCH   7   8
BRANCH   7  10
HETATM   10  C   LIG     1      -1.816  -1.037  -0.232  1.00  0.00     0.102 C 
HETATM   11  C   LIG     1      -1.639  -1.914   1.003  1.00  0.00     0.026 C 
ENDBRANCH   7  10
ENDBRANCH   1   7
TORSDOF 3
