REMARK  5 active torsions:
REMARK  status: ('A' for Active; 'I' for Inactive)
REMARK    1  A    between atoms: C_1  and  C_2 
REMARK    2  A    between atoms: C_2  and  N_3 
REMARK    3  A    between atoms: N_3  and  C_10 
REMARK    4  A    between atoms: N_3  and  C_4 
REMARK    5  A    between atoms: C_10  and  C_11 
ROOT
HETATM    1  N   LIG     1       0.050   0.043  -0.384  1.00  0.00    -0.338 N 
ENDROOT
BRANCH   1   2
HETATM    2  C   LIG     1      -0.525  -1.293  -0.177  1.00  0.00     0.168 C 
BRANCH   2   3
HETATM    3  C   LIG     1      -2.018  -1.222  -0.234  1.00  0.00     0.153 A 
HETATM    4  N   LIG     1      -2.826  -1.016   0.907  1.00  0.00    -0.253 NA
HETATM    5  C   LIG     1      -4.195  -0.885   0.453  1.00  0.00     0.153 A 
HETATM    6  C   LIG     1      -4.094  -1.053  -1.072  1.00  0.00     0.153 A 
HETATM    7  N   LIG     1      -2.672  -1.226  -1.343  1.00  0.00    -0.253 NA
ENDBRANCH   2   3
ENDBRANCH   1   2
BRANCH   1   8
HETATM    8  C   LIG     1       0.949   0.279  -1.520  1.00  0.00     0.129 C 
BRANCH   8   9
HETATM    9  C   LIG     1       2.283  -0.369  -1.267  1.00  0.00     0.000 A 
HETATM   10  C   LIG     1       2.706  -1.464  -2.041  1.00  0.00    -0.002 A 
HETATM   11  C   LIG     1       3.943  -2.066  -1.791  1.00  0.00    -0.000 A 
HETATM   12  C   LIG     1       4.765  -1.581  -0.770  1.00  0.00    -0.000 A 
HETATM   13  C   LIG     1       4.352  -0.493   0.003  1.00  0.00    -0.000 A 
HETATM   14  C   LIG     1       3.116   0.113  -0.244  1.00  0.00    -0.002 A 
ENDBRANCH   8   9
ENDBRANCH   1   8
BRANCH   1  15
HETATM   15  C   LIG     1      -0.213   1.100   0.559  1.00  0.00     0.057 A 
HETATM   16  C   LIG     1      -0.746   2.322   0.117  1.00  0.00     0.017 A 
HETATM   17  C   LIG     1      -1.018   3.344   1.030  1.00  0.00     0.002 A 
HETATM   18  C   LIG     1      -0.763   3.154   2.391  1.00  0.00     0.000 A 
HETATM   19  C   LIG     1      -0.234   1.940   2.839  1.00  0.00     0.002 A 
HETATM   20  C   LIG     1       0.040   0.916   1.928  1.00  0.00     0.017 A 
ENDBRANCH   1  15
TORSDOF 5
