REMARK  6 active torsions:
REMARK  status: ('A' for Active; 'I' for Inactive)
REMARK    1  A    between atoms: N_2  and  C_4 
REMARK    2  A    between atoms: C_4  and  C_5 
REMARK    3  A    between atoms: C_5  and  N_6 
REMARK    4  A    between atoms: N_6  and  C_13 
REMARK    5  A    between atoms: N_6  and  C_7 
REMARK    6  A    between atoms: C_13  and  C_14 
ROOT
HETATM    1  N   LIG     1       0.051   0.289  -0.495  1.00  0.00    -0.327 N 
ENDROOT
BRANCH   1   2
HETATM    2  C   LIG     1       0.989   0.112  -1.616  1.00  0.00     0.139 C 
BRANCH   2   3
HETATM    3  C   LIG     1       2.015  -0.986  -1.305  1.00  0.00     0.274 C 
BRANCH   3   4
HETATM    4  N   LIG     1       2.669  -0.750   0.001  1.00  0.00     0.143 N 
HETATM    5  C   LIG     1       3.764   0.227  -0.123  1.00  0.00     0.286 C 
HETATM    6  C   LIG     1       3.197  -2.013   0.541  1.00  0.00     0.286 C 
ENDBRANCH   3   4
ENDBRANCH   2   3
ENDBRANCH   1   2
BRANCH   1   7
HETATM    7  C   LIG     1       0.107   1.530   0.297  1.00  0.00     0.136 C 
BRANCH   7   8
HETATM    8  C   LIG     1      -1.160   2.312   0.134  1.00  0.00     0.030 A 
HETATM    9  C   LIG     1      -2.035   2.673   1.150  1.00  0.00     0.005 A 
HETATM   10  C   LIG     1      -3.138   3.403   0.692  1.00  0.00     0.007 A 
HETATM   11  C   LIG     1      -3.132   3.619  -0.681  1.00  0.00     0.035 A 
HETATM   12  S   LIG     1      -1.754   2.901  -1.324  1.00  0.00    -0.089 SA
ENDBRANCH   7   8
ENDBRANCH   1   7
BRANCH   1  13
HETATM   13  C   LIG     1      -0.930  -0.743  -0.219  1.00  0.00     0.140 A 
HETATM   14  C   LIG     1      -1.561  -0.851   1.036  1.00  0.00     0.037 A 
HETATM   15  C   LIG     1      -2.500  -1.861   1.252  1.00  0.00     0.005 A 
HETATM   16  C   LIG     1      -2.806  -2.758   0.229  1.00  0.00     0.021 A 
HETATM   17  C   LIG     1      -2.163  -2.631  -1.002  1.00  0.00     0.101 A 
HETATM   18  N   LIG     1      -1.252  -1.641  -1.194  1.00  0.00    -0.227 NA
ENDBRANCH   1  13
TORSDOF 6
