REMARK  6 active torsions:
REMARK  status: ('A' for Active; 'I' for Inactive)
REMARK    1  A    between atoms: N_2  and  C_3 
REMARK    2  A    between atoms: C_3  and  C_4 
REMARK    3  A    between atoms: C_4  and  N_5 
REMARK    4  A    between atoms: N_5  and  C_12 
REMARK    5  A    between atoms: N_5  and  C_6 
REMARK    6  A    between atoms: C_12  and  C_13 
ROOT
HETATM    1  N   LIG     1       0.046   0.529   0.755  1.00  0.00    -0.328 N 
ENDROOT
BRANCH   1   2
HETATM    2  C   LIG     1      -1.116  -0.373   0.843  1.00  0.00     0.139 C 
BRANCH   2   3
HETATM    3  C   LIG     1      -1.702  -0.639  -0.562  1.00  0.00     0.274 C 
BRANCH   3   4
HETATM    4  N   LIG     1      -2.765  -1.670  -0.597  1.00  0.00     0.143 N 
HETATM    5  C   LIG     1      -2.259  -3.026  -0.336  1.00  0.00     0.286 C 
HETATM    6  C   LIG     1      -3.906  -1.348   0.274  1.00  0.00     0.286 C 
ENDBRANCH   3   4
ENDBRANCH   2   3
ENDBRANCH   1   2
BRANCH   1   7
HETATM    7  C   LIG     1       1.350   0.081   1.279  1.00  0.00     0.130 C 
BRANCH   7   8
HETATM    8  C   LIG     1       2.194  -0.548   0.197  1.00  0.00     0.000 A 
HETATM    9  C   LIG     1       1.792  -1.749  -0.413  1.00  0.00    -0.002 A 
HETATM   10  C   LIG     1       2.580  -2.338  -1.406  1.00  0.00    -0.000 A 
HETATM   11  C   LIG     1       3.787  -1.744  -1.786  1.00  0.00    -0.000 A 
HETATM   12  C   LIG     1       4.211  -0.567  -1.166  1.00  0.00    -0.000 A 
HETATM   13  C   LIG     1       3.425   0.025  -0.172  1.00  0.00    -0.002 A 
ENDBRANCH   7   8
ENDBRANCH   1   7
BRANCH   1  14
HETATM   14  C   LIG     1      -0.156   1.900   0.335  1.00  0.00     0.140 A 
HETATM   15  C   LIG     1       0.886   2.661  -0.225  1.00  0.00     0.037 A 
HETATM   16  C   LIG     1       0.644   3.978  -0.620  1.00  0.00     0.005 A 
HETATM   17  C   LIG     1      -0.626   4.531  -0.460  1.00  0.00     0.021 A 
HETATM   18  C   LIG     1      -1.642   3.752   0.094  1.00  0.00     0.101 A 
HETATM   19  N   LIG     1      -1.387   2.472   0.473  1.00  0.00    -0.227 NA
ENDBRANCH   1  14
TORSDOF 6
