REMARK  1 active torsions:
REMARK  status: ('A' for Active; 'I' for Inactive)
REMARK    1  A    between atoms: C_4  and  C_5 
ROOT
HETATM    1 CL   LIG     1       3.609  -2.805  -0.427  1.00  0.00    -0.081 Cl
HETATM    2  C   LIG     1       2.824  -1.250  -0.177  1.00  0.00     0.071 A 
HETATM    3  C   LIG     1       1.424  -1.203  -0.189  1.00  0.00     0.013 A 
HETATM    4  C   LIG     1       0.744   0.012   0.000  1.00  0.00     0.001 A 
HETATM    5  C   LIG     1       1.491   1.185   0.203  1.00  0.00     0.001 A 
HETATM    6  C   LIG     1       2.886   1.142   0.216  1.00  0.00     0.015 A 
HETATM    7  C   LIG     1       3.565  -0.070   0.028  1.00  0.00     0.081 A 
HETATM    8  N   LIG     1       4.998  -0.083   0.047  1.00  0.00    -0.100 NA
ENDROOT
BRANCH   4   9
HETATM    9  C   LIG     1      -0.741   0.056  -0.014  1.00  0.00     0.001 A 
HETATM   10  C   LIG     1      -1.418   1.107  -0.656  1.00  0.00     0.001 A 
HETATM   11  C   LIG     1      -2.814   1.147  -0.669  1.00  0.00     0.015 A 
HETATM   12  C   LIG     1      -3.563   0.141  -0.042  1.00  0.00     0.081 A 
HETATM   13  C   LIG     1      -2.892  -0.915   0.606  1.00  0.00     0.071 A 
HETATM   14  N   LIG     1      -4.994   0.209  -0.072  1.00  0.00    -0.100 NA
HETATM   15  C   LIG     1      -1.492  -0.952   0.616  1.00  0.00     0.013 A 
HETATM   16 CL   LIG     1      -3.767  -2.207   1.419  1.00  0.00    -0.081 Cl
ENDBRANCH   4   9
TORSDOF 1
