REMARK  0 active torsions:
REMARK  status: ('A' for Active; 'I' for Inactive)
ROOT
HETATM    1  C   LIG     1      -2.381  -0.699   0.519  1.00  0.00     0.000 A 
HETATM    2  C   LIG     1      -1.121  -1.132   0.959  1.00  0.00     0.000 A 
HETATM    3  C   LIG     1       0.047  -0.526   0.471  1.00  0.00     0.000 A 
HETATM    4  C   LIG     1       1.307  -0.959   0.910  1.00  0.00     0.000 A 
HETATM    5  C   LIG     1       2.474  -0.354   0.422  1.00  0.00     0.000 A 
HETATM    6  C   LIG     1       3.738  -0.783   0.859  1.00  0.00     0.000 A 
HETATM    7  C   LIG     1       4.896  -0.175   0.367  1.00  0.00     0.000 A 
HETATM    8  C   LIG     1       4.803   0.865  -0.562  1.00  0.00     0.000 A 
HETATM    9  C   LIG     1       3.552   1.302  -1.006  1.00  0.00     0.000 A 
HETATM   10  C   LIG     1       2.381   0.699  -0.519  1.00  0.00     0.000 A 
HETATM   11  C   LIG     1       1.121   1.132  -0.959  1.00  0.00     0.000 A 
HETATM   12  C   LIG     1      -0.047   0.526  -0.471  1.00  0.00     0.000 A 
HETATM   13  C   LIG     1      -1.307   0.959  -0.910  1.00  0.00     0.000 A 
HETATM   14  C   LIG     1      -2.474   0.354  -0.422  1.00  0.00     0.000 A 
HETATM   15  C   LIG     1      -3.738   0.783  -0.859  1.00  0.00     0.000 A 
HETATM   16  C   LIG     1      -4.896   0.175  -0.367  1.00  0.00     0.000 A 
HETATM   17  C   LIG     1      -4.803  -0.865   0.562  1.00  0.00     0.000 A 
HETATM   18  C   LIG     1      -3.552  -1.302   1.006  1.00  0.00     0.000 A 
ENDROOT
TORSDOF 0
