REMARK  1 active torsions:
REMARK  status: ('A' for Active; 'I' for Inactive)
REMARK    1  A    between atoms: C_5  and  C_6 
ROOT
HETATM    1  C   LIG     1      -0.435  -0.119   0.148  1.00  0.00     0.111 A 
HETATM    2  N   LIG     1       0.286   0.780  -0.571  1.00  0.00    -0.239 NA
HETATM    3  C   LIG     1       1.617   0.651  -0.335  1.00  0.00     0.088 A 
HETATM    4  C   LIG     1       2.603   1.433  -0.936  1.00  0.00     0.019 A 
HETATM    5  C   LIG     1       3.949   1.194  -0.609  1.00  0.00    -0.003 A 
HETATM    6  C   LIG     1       4.297   0.188   0.322  1.00  0.00    -0.021 A 
HETATM    7  C   LIG     1       5.738  -0.083   0.633  1.00  0.00     0.031 C 
HETATM    8  C   LIG     1       3.287  -0.603   0.907  1.00  0.00     0.004 A 
HETATM    9  C   LIG     1       1.964  -0.343   0.563  1.00  0.00     0.048 A 
HETATM   10  S   LIG     1       0.570  -1.105   1.099  1.00  0.00    -0.066 SA
ENDROOT
BRANCH   1  11
HETATM   11  C   LIG     1      -1.913  -0.205   0.088  1.00  0.00     0.024 A 
HETATM   12  C   LIG     1      -2.638   0.669  -0.742  1.00  0.00     0.003 A 
HETATM   13  C   LIG     1      -4.033   0.595  -0.805  1.00  0.00     0.014 A 
HETATM   14  C   LIG     1      -4.725  -0.353  -0.042  1.00  0.00     0.070 A 
HETATM   15  N   LIG     1      -6.152  -0.428  -0.107  1.00  0.00    -0.101 NA
HETATM   16  C   LIG     1      -4.010  -1.227   0.787  1.00  0.00     0.014 A 
HETATM   17  C   LIG     1      -2.615  -1.155   0.852  1.00  0.00     0.003 A 
ENDBRANCH   1  11
TORSDOF 1
