REMARK  1 active torsions:
REMARK  status: ('A' for Active; 'I' for Inactive)
REMARK    1  A    between atoms: C_1  and  C_2 
ROOT
HETATM    1  C   LIG     1       0.742   0.033  -0.056  1.00  0.00     0.000 A 
HETATM    2  C   LIG     1       1.491  -1.010  -0.634  1.00  0.00     0.000 A 
HETATM    3  C   LIG     1       2.887  -0.945  -0.667  1.00  0.00     0.000 A 
HETATM    4  C   LIG     1       3.551   0.157  -0.124  1.00  0.00     0.000 A 
HETATM    5  C   LIG     1       2.820   1.197   0.453  1.00  0.00     0.000 A 
HETATM    6  C   LIG     1       1.423   1.139   0.488  1.00  0.00     0.000 A 
ENDROOT
BRANCH   1   7
HETATM    7  C   LIG     1      -0.742  -0.033  -0.020  1.00  0.00     0.000 A 
HETATM    8  C   LIG     1      -1.516   1.117  -0.270  1.00  0.00     0.000 A 
HETATM    9  C   LIG     1      -2.912   1.052  -0.236  1.00  0.00     0.000 A 
HETATM   10  C   LIG     1      -3.551  -0.157   0.049  1.00  0.00     0.000 A 
HETATM   11  C   LIG     1      -2.795  -1.304   0.299  1.00  0.00     0.000 A 
HETATM   12  C   LIG     1      -1.398  -1.245   0.266  1.00  0.00     0.000 A 
ENDBRANCH   1   7
TORSDOF 1
