REMARK  1 active torsions:
REMARK  status: ('A' for Active; 'I' for Inactive)
REMARK    1  A    between atoms: C_5  and  C_6 
ROOT
HETATM    1  O   LIG     1       4.649  -0.659   0.235  1.00  0.00    -0.190 OA
HETATM    2  C   LIG     1       3.271  -0.465   0.168  1.00  0.00     0.131 A 
HETATM    3  C   LIG     1       2.672   0.634   0.797  1.00  0.00     0.027 A 
HETATM    4  C   LIG     1       1.289   0.819   0.723  1.00  0.00     0.002 A 
HETATM    5  C   LIG     1       0.483  -0.094   0.017  1.00  0.00     0.000 A 
HETATM    6  C   LIG     1       1.094  -1.195  -0.611  1.00  0.00     0.002 A 
HETATM    7  C   LIG     1       2.478  -1.377  -0.535  1.00  0.00     0.027 A 
ENDROOT
BRANCH   5   8
HETATM    8  C   LIG     1      -0.988   0.101  -0.063  1.00  0.00     0.000 A 
HETATM    9  C   LIG     1      -1.862  -0.998   0.045  1.00  0.00     0.000 A 
HETATM   10  C   LIG     1      -3.246  -0.811  -0.031  1.00  0.00     0.000 A 
HETATM   11  C   LIG     1      -3.772   0.470  -0.215  1.00  0.00     0.000 A 
HETATM   12  C   LIG     1      -2.915   1.567  -0.323  1.00  0.00     0.000 A 
HETATM   13  C   LIG     1      -1.530   1.387  -0.248  1.00  0.00     0.000 A 
ENDBRANCH   5   8
TORSDOF 1
