REMARK  1 active torsions:
REMARK  status: ('A' for Active; 'I' for Inactive)
REMARK    1  A    between atoms: C_7  and  C_8 
ROOT
HETATM    1  N   LIG     1      -4.929   0.547  -0.603  1.00  0.00    -0.101 NA
HETATM    2  C   LIG     1      -3.517   0.403  -0.430  1.00  0.00     0.070 A 
HETATM    3  C   LIG     1      -2.969  -0.849  -0.122  1.00  0.00     0.014 A 
HETATM    4  C   LIG     1      -1.588  -0.992   0.047  1.00  0.00     0.001 A 
HETATM    5  C   LIG     1      -2.672   1.512  -0.568  1.00  0.00     0.014 A 
HETATM    6  C   LIG     1      -1.292   1.372  -0.399  1.00  0.00     0.001 A 
HETATM    7  C   LIG     1      -0.734   0.117  -0.090  1.00  0.00     0.000 A 
ENDROOT
BRANCH   7   8
HETATM    8  C   LIG     1       0.734  -0.033   0.090  1.00  0.00     0.000 A 
HETATM    9  C   LIG     1       1.475   0.948   0.774  1.00  0.00     0.001 A 
HETATM   10  C   LIG     1       2.855   0.805   0.943  1.00  0.00     0.014 A 
HETATM   11  C   LIG     1       3.517  -0.318   0.430  1.00  0.00     0.070 A 
HETATM   12  C   LIG     1       2.786  -1.298  -0.253  1.00  0.00     0.014 A 
HETATM   13  N   LIG     1       4.929  -0.463   0.603  1.00  0.00    -0.101 NA
HETATM   14  C   LIG     1       1.405  -1.158  -0.422  1.00  0.00     0.001 A 
ENDBRANCH   7   8
TORSDOF 1
