REMARK  2 active torsions:
REMARK  status: ('A' for Active; 'I' for Inactive)
REMARK    1  A    between atoms: C_1  and  C_2 
REMARK    2  A    between atoms: C_5  and  C_6 
ROOT
HETATM    1  C   LIG     1       1.409   0.107   0.066  1.00  0.00     0.000 A 
HETATM    2  C   LIG     1       0.782  -0.749   0.988  1.00  0.00     0.000 A 
HETATM    3  C   LIG     1      -0.611  -0.855   1.026  1.00  0.00     0.000 A 
HETATM    4  C   LIG     1      -1.409  -0.107   0.144  1.00  0.00     0.000 A 
HETATM    5  C   LIG     1      -0.782   0.749  -0.778  1.00  0.00     0.000 A 
HETATM    6  C   LIG     1       0.611   0.855  -0.817  1.00  0.00     0.000 A 
ENDROOT
BRANCH   1   7
HETATM    7  C   LIG     1       2.890   0.219   0.025  1.00  0.00     0.000 A 
HETATM    8  C   LIG     1       3.508   1.470  -0.160  1.00  0.00     0.000 A 
HETATM    9  C   LIG     1       4.902   1.573  -0.198  1.00  0.00     0.000 A 
HETATM   10  C   LIG     1       5.693   0.431  -0.053  1.00  0.00     0.000 A 
HETATM   11  C   LIG     1       5.092  -0.816   0.131  1.00  0.00     0.000 A 
HETATM   12  C   LIG     1       3.699  -0.925   0.170  1.00  0.00     0.000 A 
ENDBRANCH   1   7
BRANCH   4  13
HETATM   13  C   LIG     1      -2.890  -0.219   0.185  1.00  0.00     0.000 A 
HETATM   14  C   LIG     1      -3.508  -1.470   0.370  1.00  0.00     0.000 A 
HETATM   15  C   LIG     1      -4.902  -1.573   0.407  1.00  0.00     0.000 A 
HETATM   16  C   LIG     1      -5.693  -0.431   0.262  1.00  0.00     0.000 A 
HETATM   17  C   LIG     1      -5.092   0.816   0.079  1.00  0.00     0.000 A 
HETATM   18  C   LIG     1      -3.699   0.925   0.040  1.00  0.00     0.000 A 
ENDBRANCH   4  13
TORSDOF 2
