REMARK  0 active torsions:
REMARK  status: ('A' for Active; 'I' for Inactive)
ROOT
HETATM    1  C   LIG     1      -3.579   1.174   0.622  1.00  0.00     0.031 C 
HETATM    2  C   LIG     1      -2.334   0.404   0.291  1.00  0.00    -0.020 A 
HETATM    3  C   LIG     1      -2.408  -0.935  -0.128  1.00  0.00    -0.004 A 
HETATM    4  C   LIG     1      -1.243  -1.646  -0.434  1.00  0.00     0.001 A 
HETATM    5  C   LIG     1      -1.082   1.028   0.401  1.00  0.00     0.015 A 
HETATM    6  C   LIG     1       0.087   0.322   0.096  1.00  0.00     0.081 A 
HETATM    7  C   LIG     1       0.008  -1.024  -0.325  1.00  0.00     0.018 A 
HETATM    8  C   LIG     1       1.191  -1.710  -0.624  1.00  0.00     0.003 A 
HETATM    9  C   LIG     1       2.421  -1.060  -0.504  1.00  0.00     0.015 A 
HETATM   10  C   LIG     1       2.459   0.277  -0.084  1.00  0.00     0.059 A 
HETATM   11  C   LIG     1       3.767   0.989   0.050  1.00  0.00     0.052 C 
HETATM   12  N   LIG     1       1.299   0.929   0.203  1.00  0.00    -0.250 NA
ENDROOT
TORSDOF 0
