REMARK  2 active torsions:
REMARK  status: ('A' for Active; 'I' for Inactive)
REMARK    1  A    between atoms: C_2  and  C_9 
REMARK    2  A    between atoms: C_2  and  C_3 
ROOT
HETATM    1  C   LIG     1      -0.374  -0.485   0.067  1.00  0.00     0.035 A 
HETATM    2  C   LIG     1      -0.656   0.781  -0.490  1.00  0.00     0.003 A 
HETATM    3  C   LIG     1      -1.950   1.310  -0.434  1.00  0.00     0.000 A 
HETATM    4  C   LIG     1      -2.978   0.589   0.176  1.00  0.00     0.000 A 
HETATM    5  C   LIG     1      -2.715  -0.663   0.733  1.00  0.00     0.000 A 
HETATM    6  C   LIG     1      -1.424  -1.198   0.681  1.00  0.00     0.003 A 
ENDROOT
BRANCH   1   7
HETATM    7  C   LIG     1       0.994  -1.075   0.025  1.00  0.00     0.173 C 
HETATM    8  O   LIG     1       1.226  -2.143   0.654  1.00  0.00    -0.291 OA
BRANCH   7   9
HETATM    9  C   LIG     1       2.137  -0.433  -0.716  1.00  0.00     0.069 C 
HETATM   10  C   LIG     1       2.830   0.614   0.151  1.00  0.00     0.009 C 
ENDBRANCH   7   9
ENDBRANCH   1   7
TORSDOF 2
