REMARK  2 active torsions:
REMARK  status: ('A' for Active; 'I' for Inactive)
REMARK    1  A    between atoms: C_2  and  C_5 
REMARK    2  A    between atoms: C_2  and  O_3 
ROOT
HETATM    1  C   LIG     1      -0.247   0.085  -0.231  1.00  0.00     0.063 A 
HETATM    2  C   LIG     1      -0.635  -0.459   1.007  1.00  0.00     0.005 A 
HETATM    3  C   LIG     1      -1.988  -0.653   1.302  1.00  0.00     0.000 A 
HETATM    4  C   LIG     1      -2.966  -0.306   0.367  1.00  0.00     0.000 A 
HETATM    5  C   LIG     1      -2.593   0.236  -0.865  1.00  0.00     0.000 A 
HETATM    6  C   LIG     1      -1.241   0.431  -1.165  1.00  0.00     0.005 A 
ENDROOT
BRANCH   1   7
HETATM    7  C   LIG     1       1.185   0.289  -0.541  1.00  0.00     0.296 C 
HETATM    8  O   LIG     1       1.530   0.778  -1.653  1.00  0.00    -0.259 OA
BRANCH   7   9
HETATM    9  O   LIG     1       2.159  -0.061   0.401  1.00  0.00    -0.296 OA
HETATM   10  C   LIG     1       3.552   0.110   0.165  1.00  0.00     0.185 C 
ENDBRANCH   7   9
ENDBRANCH   1   7
TORSDOF 2
