REMARK  2 active torsions:
REMARK  status: ('A' for Active; 'I' for Inactive)
REMARK    1  A    between atoms: C_2  and  C_3 
REMARK    2  A    between atoms: C_2  and  O_9 
ROOT
HETATM    1  C   LIG     1      -0.427  -0.114  -0.339  1.00  0.00     0.082 A 
HETATM    2  C   LIG     1      -0.877   0.102   0.974  1.00  0.00     0.009 A 
HETATM    3  C   LIG     1      -2.239   0.016   1.271  1.00  0.00     0.021 A 
HETATM    4  C   LIG     1      -3.144  -0.285   0.253  1.00  0.00     0.099 A 
HETATM    5  N   LIG     1      -2.698  -0.492  -1.014  1.00  0.00    -0.242 NA
HETATM    6  C   LIG     1      -1.378  -0.414  -1.330  1.00  0.00     0.104 A 
ENDROOT
BRANCH   1   7
HETATM    7  C   LIG     1       1.013  -0.025  -0.666  1.00  0.00     0.297 C 
HETATM    8  O   LIG     1       1.407  -0.221  -1.849  1.00  0.00    -0.259 OA
BRANCH   7   9
HETATM    9  O   LIG     1       1.938   0.276   0.340  1.00  0.00    -0.296 OA
HETATM   10  C   LIG     1       3.336   0.375   0.092  1.00  0.00     0.185 C 
ENDBRANCH   7   9
ENDBRANCH   1   7
TORSDOF 2
