REMARK  3 active torsions:
REMARK  status: ('A' for Active; 'I' for Inactive)
REMARK    1  A    between atoms: C_6  and  O_7 
REMARK    2  A    between atoms: O_7  and  C_8 
REMARK    3  A    between atoms: C_8  and  C_10 
ROOT
HETATM    1 CL   LIG     1       4.820  -0.677   1.230  1.00  0.00    -0.082 Cl
HETATM    2  C   LIG     1       3.193  -0.591   0.579  1.00  0.00     0.058 A 
HETATM    3  C   LIG     1       2.662   0.642   0.185  1.00  0.00     0.009 A 
HETATM    4  C   LIG     1       1.363   0.720  -0.345  1.00  0.00     0.001 A 
HETATM    5  C   LIG     1       0.819   2.056  -0.766  1.00  0.00     0.033 C 
HETATM    6  C   LIG     1       0.584  -0.454  -0.440  1.00  0.00     0.091 A 
HETATM    7  C   LIG     1       1.132  -1.685  -0.059  1.00  0.00     0.025 A 
HETATM    8  C   LIG     1       2.430  -1.754   0.450  1.00  0.00     0.013 A 
ENDROOT
BRANCH   6   9
HETATM    9  O   LIG     1      -0.726  -0.419  -0.927  1.00  0.00    -0.323 OA
BRANCH   9  10
HETATM   10  C   LIG     1      -1.822   0.028  -0.131  1.00  0.00     0.208 C 
HETATM   11  C   LIG     1      -3.036   0.253  -1.028  1.00  0.00     0.044 C 
BRANCH  10  12
HETATM   12  C   LIG     1      -2.135  -0.989   0.934  1.00  0.00     0.214 C 
HETATM   13  O   LIG     1      -2.102  -0.641   2.281  1.00  0.00    -0.646 OA
HETATM   14  O   LIG     1      -2.421  -2.172   0.610  1.00  0.00    -0.646 OA
ENDBRANCH  10  12
ENDBRANCH   9  10
ENDBRANCH   6   9
TORSDOF 3
