REMARK  3 active torsions:
REMARK  status: ('A' for Active; 'I' for Inactive)
REMARK    1  A    between atoms: C_2  and  C_4 
REMARK    2  A    between atoms: C_4  and  O_5 
REMARK    3  A    between atoms: O_5  and  C_6 
ROOT
HETATM    1  C   LIG     1       0.287  -0.312   0.144  1.00  0.00     0.106 A 
HETATM    2  C   LIG     1       0.872   0.545  -0.808  1.00  0.00     0.037 A 
HETATM    3  C   LIG     1       2.258   0.555  -0.999  1.00  0.00     0.070 A 
HETATM    4 CL   LIG     1       2.945   1.641  -2.199  1.00  0.00    -0.081 Cl
HETATM    5  C   LIG     1       3.075  -0.294  -0.236  1.00  0.00     0.069 A 
HETATM    6 CL   LIG     1       4.821  -0.312  -0.445  1.00  0.00    -0.082 Cl
HETATM    7  C   LIG     1       2.498  -1.146   0.711  1.00  0.00     0.026 A 
HETATM    8  C   LIG     1       1.112  -1.157   0.902  1.00  0.00     0.081 A 
HETATM    9 CL   LIG     1       0.419  -2.239   2.100  1.00  0.00    -0.080 Cl
ENDROOT
BRANCH   1  10
HETATM   10  O   LIG     1      -1.100  -0.349   0.363  1.00  0.00    -0.319 OA
BRANCH  10  11
HETATM   11  C   LIG     1      -2.050   0.454  -0.330  1.00  0.00     0.246 C 
BRANCH  11  12
HETATM   12  C   LIG     1      -3.419   0.145   0.181  1.00  0.00     0.217 C 
HETATM   13  O   LIG     1      -4.180  -0.613  -0.475  1.00  0.00    -0.645 OA
HETATM   14  O   LIG     1      -3.847   0.655   1.403  1.00  0.00    -0.645 OA
ENDBRANCH  11  12
ENDBRANCH  10  11
ENDBRANCH   1  10
TORSDOF 3
