REMARK  3 active torsions:
REMARK  status: ('A' for Active; 'I' for Inactive)
REMARK    1  A    between atoms: C_2  and  C_6 
REMARK    2  A    between atoms: C_2  and  O_3 
REMARK    3  A    between atoms: O_3  and  C_4 
ROOT
HETATM    1  C   LIG     1      -0.867   0.174  -0.211  1.00  0.00     0.063 A 
HETATM    2  C   LIG     1      -1.777   0.275  -1.280  1.00  0.00     0.005 A 
HETATM    3  C   LIG     1      -3.120  -0.071  -1.100  1.00  0.00     0.000 A 
HETATM    4  C   LIG     1      -3.568  -0.519   0.144  1.00  0.00     0.000 A 
HETATM    5  C   LIG     1      -2.674  -0.624   1.212  1.00  0.00     0.000 A 
HETATM    6  C   LIG     1      -1.329  -0.280   1.038  1.00  0.00     0.005 A 
ENDROOT
BRANCH   1   7
HETATM    7  C   LIG     1       0.556   0.537  -0.393  1.00  0.00     0.296 C 
HETATM    8  O   LIG     1       0.967   0.942  -1.516  1.00  0.00    -0.259 OA
BRANCH   7   9
HETATM    9  O   LIG     1       1.444   0.435   0.685  1.00  0.00    -0.298 OA
BRANCH   9  10
HETATM   10  C   LIG     1       2.840   0.713   0.585  1.00  0.00     0.152 C 
HETATM   11  C   LIG     1       3.567  -0.431  -0.113  1.00  0.00     0.035 C 
ENDBRANCH   9  10
ENDBRANCH   7   9
ENDBRANCH   1   7
TORSDOF 3
