REMARK  0 active torsions:
REMARK  status: ('A' for Active; 'I' for Inactive)
ROOT
HETATM    1  C   LIG     1      -2.922   0.734   0.580  1.00  0.00     0.054 C 
HETATM    2  C   LIG     1      -1.563   0.220   0.231  1.00  0.00     0.080 A 
HETATM    3  N   LIG     1      -0.460   0.977   0.487  1.00  0.00    -0.228 NA
HETATM    4  C   LIG     1       0.784   0.529   0.178  1.00  0.00     0.183 A 
HETATM    5  N   LIG     1       1.879   1.290   0.438  1.00  0.00    -0.203 NA
HETATM    6  C   LIG     1       3.124   0.840   0.128  1.00  0.00     0.201 A 
HETATM    7  N   LIG     1       3.288  -0.382  -0.448  1.00  0.00    -0.221 NA
HETATM    8  C   LIG     1       2.220  -1.177  -0.726  1.00  0.00     0.123 A 
HETATM    9  C   LIG     1       0.935  -0.734  -0.415  1.00  0.00     0.136 A 
HETATM   10  N   LIG     1      -0.163  -1.492  -0.673  1.00  0.00    -0.238 NA
HETATM   11  C   LIG     1      -1.408  -1.042  -0.363  1.00  0.00     0.114 A 
ENDROOT
TORSDOF 0
