REMARK  1 active torsions:
REMARK  status: ('A' for Active; 'I' for Inactive)
REMARK    1  A    between atoms: C_2  and  C_3 
ROOT
HETATM    1  C   LIG     1      -1.270  -0.313  -0.064  1.00  0.00    -0.022 A 
HETATM    2  C   LIG     1      -0.102  -1.055   0.184  1.00  0.00    -0.004 A 
HETATM    3  C   LIG     1       1.165  -0.479   0.015  1.00  0.00    -0.000 A 
HETATM    4  C   LIG     1       2.329  -1.224   0.264  1.00  0.00    -0.000 A 
HETATM    5  C   LIG     1       3.587  -0.638   0.092  1.00  0.00     0.000 A 
HETATM    6  C   LIG     1       3.693   0.691  -0.327  1.00  0.00     0.000 A 
HETATM    7  C   LIG     1       2.542   1.443  -0.578  1.00  0.00     0.000 A 
HETATM    8  C   LIG     1       1.273   0.866  -0.409  1.00  0.00    -0.000 A 
HETATM    9  C   LIG     1       0.112   1.609  -0.657  1.00  0.00    -0.000 A 
HETATM   10  C   LIG     1      -1.148   1.027  -0.487  1.00  0.00    -0.004 A 
ENDROOT
BRANCH   1  11
HETATM   11  C   LIG     1      -2.604  -1.005   0.140  1.00  0.00     0.026 C 
HETATM   12  C   LIG     1      -3.841  -0.151  -0.144  1.00  0.00     0.004 C 
ENDBRANCH   1  11
TORSDOF 1
