REMARK  4 active torsions:
REMARK  status: ('A' for Active; 'I' for Inactive)
REMARK    1  A    between atoms: C_2  and  C_3 
REMARK    2  A    between atoms: C_2  and  O_10 
REMARK    3  A    between atoms: O_10  and  C_11 
REMARK    4  A    between atoms: C_11  and  C_12 
ROOT
HETATM    1  C   LIG     1      -1.066  -0.210  -0.345  1.00  0.00     0.063 A 
HETATM    2  C   LIG     1      -1.585   0.019   0.942  1.00  0.00     0.006 A 
HETATM    3  C   LIG     1      -2.933   0.348   1.113  1.00  0.00     0.014 A 
HETATM    4  C   LIG     1      -1.923  -0.103  -1.455  1.00  0.00     0.006 A 
HETATM    5  C   LIG     1      -3.271   0.225  -1.280  1.00  0.00     0.014 A 
HETATM    6  C   LIG     1      -3.783   0.452   0.004  1.00  0.00     0.070 A 
HETATM    7  N   LIG     1      -5.161   0.788   0.181  1.00  0.00    -0.101 NA
ENDROOT
BRANCH   1   8
HETATM    8  C   LIG     1       0.361  -0.556  -0.523  1.00  0.00     0.296 C 
HETATM    9  O   LIG     1       0.824  -0.760  -1.680  1.00  0.00    -0.259 OA
BRANCH   8  10
HETATM   10  O   LIG     1       1.197  -0.664   0.597  1.00  0.00    -0.298 OA
BRANCH  10  11
HETATM   11  C   LIG     1       2.594  -0.938   0.513  1.00  0.00     0.152 C 
BRANCH  11  12
HETATM   12  C   LIG     1       3.360   0.312   0.071  1.00  0.00     0.033 C 
HETATM   13  C   LIG     1       4.863   0.051   0.027  1.00  0.00     0.003 C 
ENDBRANCH  11  12
ENDBRANCH  10  11
ENDBRANCH   8  10
ENDBRANCH   1   8
TORSDOF 4
