REMARK  9 active torsions:
REMARK  status: ('A' for Active; 'I' for Inactive)
REMARK    1  A    between atoms: C_3  and  O_4 
REMARK    2  A    between atoms: O_4  and  C_5 
REMARK    3  A    between atoms: C_9  and  C_10 
REMARK    4  A    between atoms: C_10  and  O_12 
REMARK    5  A    between atoms: O_12  and  C_13 
REMARK    6  A    between atoms: C_13  and  C_14 
REMARK    7  A    between atoms: C_14  and  N_15 
REMARK    8  A    between atoms: N_15  and  C_16 
REMARK    9  A    between atoms: N_15  and  C_18 
ROOT
HETATM    1  C   LIG     1       0.342   0.879   1.440  1.00  0.00     0.296 C 
HETATM    2  O   LIG     1       0.318   1.691   2.406  1.00  0.00    -0.259 OA
ENDROOT
BRANCH   1   3
HETATM    3  C   LIG     1       1.608   0.616   0.721  1.00  0.00     0.063 A 
HETATM    4  C   LIG     1       1.634  -0.273  -0.367  1.00  0.00     0.007 A 
HETATM    5  C   LIG     1       2.828  -0.526  -1.047  1.00  0.00     0.024 A 
HETATM    6  C   LIG     1       4.018   0.098  -0.656  1.00  0.00     0.094 A 
HETATM    7  C   LIG     1       3.996   0.993   0.430  1.00  0.00     0.024 A 
HETATM    8  C   LIG     1       2.802   1.248   1.111  1.00  0.00     0.007 A 
BRANCH   6   9
HETATM    9  O   LIG     1       5.187  -0.195  -1.379  1.00  0.00    -0.331 OA
BRANCH   9  10
HETATM   10  C   LIG     1       6.500   0.266  -1.058  1.00  0.00     0.149 C 
HETATM   11  C   LIG     1       7.070  -0.508   0.126  1.00  0.00     0.035 C 
ENDBRANCH   9  10
ENDBRANCH   6   9
ENDBRANCH   1   3
BRANCH   1  12
HETATM   12  O   LIG     1      -0.829   0.223   1.047  1.00  0.00    -0.296 OA
BRANCH  12  13
HETATM   13  C   LIG     1      -2.085   0.436   1.683  1.00  0.00     0.176 C 
BRANCH  13  14
HETATM   14  C   LIG     1      -3.157  -0.431   1.021  1.00  0.00     0.130 C 
BRANCH  14  15
HETATM   15  N   LIG     1      -3.135  -0.305  -0.454  1.00  0.00    -0.366 N 
BRANCH  15  16
HETATM   16  C   LIG     1      -3.582   0.999  -1.000  1.00  0.00     0.097 C 
HETATM   17  C   LIG     1      -5.095   1.225  -0.936  1.00  0.00     0.026 C 
ENDBRANCH  15  16
BRANCH  15  18
HETATM   18  C   LIG     1      -3.624  -1.491  -1.198  1.00  0.00     0.097 C 
HETATM   19  C   LIG     1      -4.891  -2.135  -0.612  1.00  0.00     0.026 C 
ENDBRANCH  15  18
ENDBRANCH  14  15
ENDBRANCH  13  14
ENDBRANCH  12  13
ENDBRANCH   1  12
TORSDOF 9
