REMARK  5 active torsions:
REMARK  status: ('A' for Active; 'I' for Inactive)
REMARK    1  A    between atoms: C_5  and  C_6 
REMARK    2  A    between atoms: C_6  and  O_7 
REMARK    3  A    between atoms: O_7  and  C_8 
REMARK    4  A    between atoms: C_8  and  C_9 
REMARK    5  A    between atoms: C_9  and  C_10 
ROOT
HETATM    1  O   LIG     1       5.957  -0.852  -0.058  1.00  0.00    -0.190 OA
HETATM    2  C   LIG     1       4.614  -0.491   0.020  1.00  0.00     0.131 A 
HETATM    3  C   LIG     1       4.105   0.020   1.218  1.00  0.00     0.028 A 
HETATM    4  C   LIG     1       2.759   0.387   1.312  1.00  0.00     0.007 A 
HETATM    5  C   LIG     1       1.903   0.247   0.203  1.00  0.00     0.063 A 
HETATM    6  C   LIG     1       2.422  -0.268  -0.998  1.00  0.00     0.007 A 
HETATM    7  C   LIG     1       3.769  -0.634  -1.087  1.00  0.00     0.028 A 
ENDROOT
BRANCH   5   8
HETATM    8  C   LIG     1       0.478   0.632   0.296  1.00  0.00     0.296 C 
HETATM    9  O   LIG     1       0.015   1.093   1.377  1.00  0.00    -0.259 OA
BRANCH   8  10
HETATM   10  O   LIG     1      -0.356   0.491  -0.821  1.00  0.00    -0.298 OA
BRANCH  10  11
HETATM   11  C   LIG     1      -1.752   0.784  -0.805  1.00  0.00     0.152 C 
BRANCH  11  12
HETATM   12  C   LIG     1      -2.528  -0.343  -0.113  1.00  0.00     0.033 C 
BRANCH  12  13
HETATM   13  C   LIG     1      -4.026  -0.033   0.023  1.00  0.00     0.003 C 
HETATM   14  C   LIG     1      -4.762  -0.074  -1.316  1.00  0.00     0.000 C 
ENDBRANCH  12  13
ENDBRANCH  11  12
ENDBRANCH  10  11
ENDBRANCH   8  10
ENDBRANCH   5   8
TORSDOF 5
