REMARK  3 active torsions:
REMARK  status: ('A' for Active; 'I' for Inactive)
REMARK    1  A    between atoms: C_2  and  C_9 
REMARK       I    between atoms: C_2  and  N_3 
REMARK    2  A    between atoms: C_10  and  C_11 
REMARK    3  A    between atoms: C_12  and  C_13 
ROOT
HETATM    1  C   LIG     1       0.898  -0.177  -1.566  1.00  0.00     0.000 C 
HETATM    2  C   LIG     1       2.179  -0.398  -1.898  1.00  0.00     0.000 C 
ENDROOT
BRANCH   1   3
HETATM    3  C   LIG     1       0.458   0.226  -0.212  1.00  0.00     0.005 C 
HETATM    4  C   LIG     1      -0.811   0.170   0.216  1.00  0.00     0.060 C 
BRANCH   4   5
HETATM    5  C   LIG     1      -1.938  -0.448  -0.519  1.00  0.00     0.257 C 
HETATM    6  O   LIG     1      -1.720  -1.395  -1.324  1.00  0.00    -0.267 OA
HETATM    7  N   LIG     1      -3.294  -0.037  -0.255  1.00  0.00    -0.317 N 
HETATM    8  C   LIG     1      -3.616   1.387  -0.071  1.00  0.00     0.104 C 
HETATM    9  C   LIG     1      -4.404  -0.954  -0.551  1.00  0.00     0.104 C 
HETATM   10  C   LIG     1      -4.727   1.551   0.969  1.00  0.00     0.024 C 
HETATM   11  C   LIG     1      -5.936   0.680   0.614  1.00  0.00     0.004 C 
HETATM   12  C   LIG     1      -5.524  -0.789   0.482  1.00  0.00     0.024 C 
ENDBRANCH   4   5
ENDBRANCH   1   3
BRANCH   2  13
HETATM   13  C   LIG     1       3.310  -0.436  -0.946  1.00  0.00     0.002 A 
HETATM   14  C   LIG     1       3.225  -1.151   0.279  1.00  0.00     0.002 A 
HETATM   15  C   LIG     1       4.327  -1.207   1.152  1.00  0.00     0.026 A 
HETATM   16  C   LIG     1       5.496  -0.561   0.765  1.00  0.00     0.119 A 
HETATM   17  C   LIG     1       5.593   0.101  -0.415  1.00  0.00     0.119 A 
HETATM   18  O   LIG     1       6.698  -0.479   1.440  1.00  0.00    -0.300 OA
HETATM   19  C   LIG     1       4.527   0.182  -1.307  1.00  0.00     0.026 A 
HETATM   20  O   LIG     1       6.862   0.633  -0.541  1.00  0.00    -0.300 OA
HETATM   21  C   LIG     1       7.608   0.283   0.634  1.00  0.00     0.304 A 
ENDBRANCH   2  13
TORSDOF 3
