REMARK  3 active torsions:
REMARK  status: ('A' for Active; 'I' for Inactive)
REMARK    1  A    between atoms: C_2  and  C_4 
REMARK    2  A    between atoms: C_4  and  O_5 
REMARK    3  A    between atoms: O_5  and  C_6 
ROOT
HETATM    1  C   LIG     1      -0.316   0.134  -0.120  1.00  0.00     0.091 A 
HETATM    2  C   LIG     1      -0.793   1.300  -0.752  1.00  0.00     0.025 A 
HETATM    3  C   LIG     1      -2.162   1.577  -0.783  1.00  0.00     0.013 A 
HETATM    4  C   LIG     1      -3.070   0.699  -0.188  1.00  0.00     0.058 A 
HETATM    5 CL   LIG     1      -4.788   1.052  -0.230  1.00  0.00    -0.082 Cl
HETATM    6  C   LIG     1      -2.609  -0.461   0.442  1.00  0.00     0.009 A 
HETATM    7  C   LIG     1      -1.235  -0.750   0.480  1.00  0.00     0.001 A 
HETATM    8  C   LIG     1      -0.747  -1.999   1.159  1.00  0.00     0.033 C 
ENDROOT
BRANCH   1   9
HETATM    9  O   LIG     1       1.054  -0.175  -0.070  1.00  0.00    -0.320 OA
BRANCH   9  10
HETATM   10  C   LIG     1       2.085   0.628  -0.634  1.00  0.00     0.246 C 
BRANCH  10  11
HETATM   11  C   LIG     1       3.404  -0.019  -0.378  1.00  0.00     0.217 C 
HETATM   12  O   LIG     1       3.852  -0.878  -1.183  1.00  0.00    -0.645 OA
HETATM   13  O   LIG     1       4.116   0.291   0.776  1.00  0.00    -0.645 OA
ENDBRANCH  10  11
ENDBRANCH   9  10
ENDBRANCH   1   9
TORSDOF 3
