REMARK  3 active torsions:
REMARK  status: ('A' for Active; 'I' for Inactive)
REMARK    1  A    between atoms: C_3  and  O_4 
REMARK    2  A    between atoms: O_4  and  C_5 
REMARK    3  A    between atoms: C_5  and  C_6 
ROOT
HETATM    1 CL   LIG     1       0.768  -1.712   2.353  1.00  0.00    -0.080 Cl
HETATM    2  C   LIG     1       1.278  -0.770   0.960  1.00  0.00     0.081 A 
HETATM    3  C   LIG     1       0.327  -0.204   0.096  1.00  0.00     0.105 A 
HETATM    4  C   LIG     1       0.768   0.546  -1.013  1.00  0.00     0.026 A 
HETATM    5  C   LIG     1       2.134   0.723  -1.247  1.00  0.00     0.013 A 
HETATM    6  C   LIG     1       3.074   0.155  -0.382  1.00  0.00     0.059 A 
HETATM    7 CL   LIG     1       4.788   0.378  -0.679  1.00  0.00    -0.082 Cl
HETATM    8  C   LIG     1       2.646  -0.591   0.720  1.00  0.00     0.025 A 
ENDROOT
BRANCH   3   9
HETATM    9  O   LIG     1      -1.036  -0.405   0.367  1.00  0.00    -0.319 OA
BRANCH   9  10
HETATM   10  C   LIG     1      -2.102   0.117  -0.421  1.00  0.00     0.246 C 
BRANCH  10  11
HETATM   11  C   LIG     1      -3.406  -0.286   0.188  1.00  0.00     0.217 C 
HETATM   12  O   LIG     1      -3.741   0.128   1.474  1.00  0.00    -0.645 OA
HETATM   13  O   LIG     1      -4.211  -1.002  -0.462  1.00  0.00    -0.645 OA
ENDBRANCH  10  11
ENDBRANCH   9  10
ENDBRANCH   3   9
TORSDOF 3
