REMARK  5 active torsions:
REMARK  status: ('A' for Active; 'I' for Inactive)
REMARK    1  A    between atoms: C_3  and  O_9 
REMARK    2  A    between atoms: O_9  and  C_10 
REMARK    3  A    between atoms: C_10  and  C_11 
REMARK    4  A    between atoms: C_11  and  C_12 
REMARK    5  A    between atoms: C_12  and  C_13 
ROOT
HETATM    1 CL   LIG     1      -1.399  -1.416   2.315  1.00  0.00    -0.080 Cl
HETATM    2  C   LIG     1      -2.205  -0.668   0.945  1.00  0.00     0.081 A 
HETATM    3  C   LIG     1      -1.468   0.061  -0.004  1.00  0.00     0.105 A 
HETATM    4  C   LIG     1      -2.143   0.648  -1.093  1.00  0.00     0.026 A 
HETATM    5  C   LIG     1      -3.527   0.506  -1.226  1.00  0.00     0.013 A 
HETATM    6  C   LIG     1      -4.252  -0.221  -0.277  1.00  0.00     0.059 A 
HETATM    7 CL   LIG     1      -5.989  -0.398  -0.447  1.00  0.00    -0.082 Cl
HETATM    8  C   LIG     1      -3.591  -0.807   0.806  1.00  0.00     0.025 A 
ENDROOT
BRANCH   3   9
HETATM    9  O   LIG     1      -0.081   0.179   0.167  1.00  0.00    -0.330 OA
BRANCH   9  10
HETATM   10  C   LIG     1       0.789   0.873  -0.725  1.00  0.00     0.149 C 
BRANCH  10  11
HETATM   11  C   LIG     1       2.229   0.787  -0.220  1.00  0.00     0.044 C 
BRANCH  11  12
HETATM   12  C   LIG     1       2.742  -0.658  -0.216  1.00  0.00     0.100 C 
BRANCH  12  13
HETATM   13  C   LIG     1       4.168  -0.717   0.245  1.00  0.00     0.185 C 
HETATM   14  O   LIG     1       4.503  -0.398   1.558  1.00  0.00    -0.647 OA
HETATM   15  O   LIG     1       5.073  -1.069  -0.556  1.00  0.00    -0.647 OA
ENDBRANCH  12  13
ENDBRANCH  11  12
ENDBRANCH  10  11
ENDBRANCH   9  10
ENDBRANCH   3   9
TORSDOF 5
