REMARK  5 active torsions:
REMARK  status: ('A' for Active; 'I' for Inactive)
REMARK    1  A    between atoms: C_2  and  C_3 
REMARK    2  A    between atoms: C_3  and  C_4 
REMARK    3  A    between atoms: C_4  and  C_6 
REMARK    4  A    between atoms: C_6  and  C_7 
REMARK    5  A    between atoms: C_6  and  C_9 
ROOT
HETATM    1  C   LIG     1       0.325   0.224  -0.331  1.00  0.00     0.155 C 
HETATM    2  O   LIG     1       0.468  -0.788  -1.296  1.00  0.00    -0.223 OA
ENDROOT
BRANCH   1   3
HETATM    3  C   LIG     1       1.544   0.204   0.618  1.00  0.00     0.033 C 
BRANCH   3   4
HETATM    4  C   LIG     1       2.794   0.876   0.022  1.00  0.00     0.003 C 
HETATM    5  C   LIG     1       3.392   0.099  -1.150  1.00  0.00     0.000 C 
ENDBRANCH   3   4
ENDBRANCH   1   3
BRANCH   1   6
HETATM    6  C   LIG     1      -1.028   0.058   0.429  1.00  0.00     0.064 C 
BRANCH   6   7
HETATM    7  C   LIG     1      -2.213   0.309  -0.539  1.00  0.00     0.005 C 
HETATM    8  C   LIG     1      -3.509   0.683   0.184  1.00  0.00     0.000 C 
ENDBRANCH   6   7
BRANCH   6   9
HETATM    9  C   LIG     1      -1.156  -1.326   1.111  1.00  0.00     0.185 C 
HETATM   10  O   LIG     1      -0.325  -1.396   2.237  1.00  0.00    -0.221 OA
ENDBRANCH   6   9
ENDBRANCH   1   6
TORSDOF 5
