REMARK  6 active torsions:
REMARK  status: ('A' for Active; 'I' for Inactive)
REMARK    1  A    between atoms: C_2  and  N_8 
REMARK    2  A    between atoms: C_2  and  S_3 
REMARK    3  A    between atoms: S_3  and  C_4 
REMARK    4  A    between atoms: C_4  and  C_5 
REMARK    5  A    between atoms: N_8  and  C_9 
REMARK    6  A    between atoms: N_8  and  C_11 
ROOT
HETATM    1  S   LIG     1      -0.440   1.384   2.570  1.00  0.00    -0.053 SA
HETATM    2  C   LIG     1      -0.489   0.263   1.373  1.00  0.00     0.139 C 
ENDROOT
BRANCH   2   3
HETATM    3  N   LIG     1      -1.284   0.466   0.179  1.00  0.00    -0.335 N 
BRANCH   3   4
HETATM    4  C   LIG     1      -1.729  -0.687  -0.618  1.00  0.00     0.103 C 
HETATM    5  C   LIG     1      -2.838  -1.443   0.107  1.00  0.00     0.026 C 
ENDBRANCH   3   4
BRANCH   3   6
HETATM    6  C   LIG     1      -1.616   1.824  -0.282  1.00  0.00     0.103 C 
HETATM    7  C   LIG     1      -0.383   2.504  -0.870  1.00  0.00     0.026 C 
ENDBRANCH   3   6
ENDBRANCH   2   3
BRANCH   2   8
HETATM    8  S   LIG     1       0.474  -1.238   1.602  1.00  0.00    -0.080 SA
BRANCH   8   9
HETATM    9  C   LIG     1       1.924  -0.579   0.706  1.00  0.00     0.102 C 
BRANCH   9  10
HETATM   10  C   LIG     1       3.056  -1.574   0.601  1.00  0.00     0.047 C 
HETATM   11  C   LIG     1       4.184  -1.224  -0.025  1.00  0.00     0.009 C 
HETATM   12 CL   LIG     1       2.947  -3.202   1.276  1.00  0.00    -0.086 Cl
ENDBRANCH   9  10
ENDBRANCH   8   9
ENDBRANCH   2   8
TORSDOF 6
