REMARK  0 active torsions:
REMARK  status: ('A' for Active; 'I' for Inactive)
ROOT
HETATM    1  C   LIG     1       0.587   0.916  -0.025  1.00  0.00     0.117 A 
HETATM    2  C   LIG     1      -0.678   1.483  -0.140  1.00  0.00     0.022 A 
HETATM    3  C   LIG     1      -1.781   0.605  -0.148  1.00  0.00     0.002 A 
HETATM    4  C   LIG     1      -1.587  -0.795  -0.044  1.00  0.00     0.002 A 
HETATM    5  C   LIG     1      -0.287  -1.329   0.070  1.00  0.00     0.022 A 
HETATM    6  C   LIG     1       0.771  -0.426   0.075  1.00  0.00     0.117 A 
HETATM    7  N   LIG     1       2.087  -0.650   0.170  1.00  0.00    -0.155 NA
HETATM    8  N   LIG     1       2.680   0.539   0.127  1.00  0.00     0.028 NA
HETATM    9  N   LIG     1       1.787   1.522   0.008  1.00  0.00    -0.155 NA
ENDROOT
TORSDOF 0
