REMARK  0 active torsions:
REMARK  status: ('A' for Active; 'I' for Inactive)
ROOT
HETATM    1  C   LIG     1       0.678  -0.494  -0.170  1.00  0.00     0.088 A 
HETATM    2  C   LIG     1      -0.372  -1.392  -0.370  1.00  0.00     0.020 A 
HETATM    3  C   LIG     1      -1.690  -0.942  -0.181  1.00  0.00     0.002 A 
HETATM    4  C   LIG     1      -1.942   0.391   0.202  1.00  0.00     0.001 A 
HETATM    5  C   LIG     1      -0.878   1.285   0.400  1.00  0.00     0.008 A 
HETATM    6  C   LIG     1       0.418   0.814   0.206  1.00  0.00     0.049 A 
HETATM    7  S   LIG     1       1.871   1.635   0.365  1.00  0.00    -0.064 SA
HETATM    8  C   LIG     1       2.780   0.270  -0.058  1.00  0.00     0.135 A 
HETATM    9  N   LIG     1       1.992  -0.802  -0.319  1.00  0.00    -0.236 NA
ENDROOT
TORSDOF 0
