REMARK  0 active torsions:
REMARK  status: ('A' for Active; 'I' for Inactive)
ROOT
HETATM    1  C   LIG     1      -2.201  -0.206   0.068  1.00  0.00     0.032 C 
HETATM    2  C   LIG     1      -0.703  -0.059   0.021  1.00  0.00    -0.011 A 
HETATM    3  C   LIG     1       0.081  -1.223   0.091  1.00  0.00    -0.003 A 
HETATM    4  C   LIG     1       1.475  -1.144   0.052  1.00  0.00    -0.000 A 
HETATM    5  C   LIG     1       2.102   0.098  -0.057  1.00  0.00     0.001 A 
HETATM    6  C   LIG     1       1.337   1.263  -0.128  1.00  0.00     0.011 A 
HETATM    7  C   LIG     1      -0.062   1.198  -0.090  1.00  0.00     0.054 A 
HETATM    8 CL   LIG     1      -0.959   2.710  -0.184  1.00  0.00    -0.083 Cl
ENDROOT
TORSDOF 0
