REMARK  0 active torsions:
REMARK  status: ('A' for Active; 'I' for Inactive)
ROOT
HETATM    1  C   LIG     1      -1.913   0.905   0.257  1.00  0.00     0.030 C 
HETATM    2  C   LIG     1      -0.450   0.590   0.091  1.00  0.00    -0.026 A 
HETATM    3  C   LIG     1       0.003  -0.744  -0.061  1.00  0.00    -0.026 A 
HETATM    4  C   LIG     1      -0.962  -1.901  -0.064  1.00  0.00     0.030 C 
HETATM    5  C   LIG     1       1.379  -0.993  -0.213  1.00  0.00    -0.004 A 
HETATM    6  C   LIG     1       2.294   0.062  -0.214  1.00  0.00    -0.000 A 
HETATM    7  C   LIG     1       1.849   1.375  -0.064  1.00  0.00    -0.000 A 
HETATM    8  C   LIG     1       0.486   1.639   0.087  1.00  0.00    -0.004 A 
ENDROOT
TORSDOF 0
