REMARK  0 active torsions:
REMARK  status: ('A' for Active; 'I' for Inactive)
ROOT
HETATM    1  O   LIG     1      -1.706   1.516  -0.342  1.00  0.00    -0.191 OA
HETATM    2  C   LIG     1      -0.498   0.847  -0.143  1.00  0.00     0.127 A 
HETATM    3  C   LIG     1       0.704   1.568  -0.092  1.00  0.00     0.027 A 
HETATM    4  C   LIG     1       1.916   0.902   0.106  1.00  0.00     0.002 A 
HETATM    5  C   LIG     1       1.935  -0.486   0.256  1.00  0.00    -0.000 A 
HETATM    6  C   LIG     1       0.742  -1.212   0.207  1.00  0.00    -0.002 A 
HETATM    7  C   LIG     1      -0.483  -0.553   0.008  1.00  0.00     0.004 A 
HETATM    8  C   LIG     1      -1.765  -1.334  -0.045  1.00  0.00     0.033 C 
ENDROOT
TORSDOF 0
