REMARK  0 active torsions:
REMARK  status: ('A' for Active; 'I' for Inactive)
ROOT
HETATM    1  N   LIG     1      -1.619  -1.470   0.458  1.00  0.00    -0.099 NA
HETATM    2  C   LIG     1      -0.462  -0.707   0.091  1.00  0.00     0.083 A 
HETATM    3  C   LIG     1       0.673  -1.389  -0.379  1.00  0.00     0.015 A 
HETATM    4  C   LIG     1       1.838  -0.692  -0.705  1.00  0.00     0.001 A 
HETATM    5  C   LIG     1       1.885   0.694  -0.567  1.00  0.00     0.001 A 
HETATM    6  C   LIG     1       0.763   1.389  -0.112  1.00  0.00     0.015 A 
HETATM    7  C   LIG     1      -0.421   0.706   0.211  1.00  0.00     0.083 A 
HETATM    8  N   LIG     1      -1.562   1.468   0.629  1.00  0.00    -0.099 NA
ENDROOT
TORSDOF 0
