REMARK  0 active torsions:
REMARK  status: ('A' for Active; 'I' for Inactive)
ROOT
HETATM    1  C   LIG     1      -1.446  -1.508  -0.490  1.00  0.00     0.032 C 
HETATM    2  C   LIG     1      -0.269  -0.631  -0.161  1.00  0.00    -0.009 A 
HETATM    3  C   LIG     1      -0.429   0.753   0.094  1.00  0.00     0.066 A 
HETATM    4  N   LIG     1      -1.718   1.381   0.050  1.00  0.00    -0.101 NA
HETATM    5  C   LIG     1       0.698   1.534   0.397  1.00  0.00     0.014 A 
HETATM    6  C   LIG     1       1.969   0.957   0.449  1.00  0.00     0.001 A 
HETATM    7  C   LIG     1       2.128  -0.405   0.199  1.00  0.00    -0.000 A 
HETATM    8  C   LIG     1       1.018  -1.196  -0.105  1.00  0.00    -0.003 A 
ENDROOT
TORSDOF 0
