REMARK  0 active torsions:
REMARK  status: ('A' for Active; 'I' for Inactive)
ROOT
HETATM    1  N   LIG     1      -2.053   0.818   0.228  1.00  0.00    -0.098 NA
HETATM    2  C   LIG     1      -0.697   0.381   0.061  1.00  0.00     0.095 A 
HETATM    3  C   LIG     1       0.283   1.335  -0.263  1.00  0.00     0.016 A 
HETATM    4  C   LIG     1       1.616   0.957  -0.435  1.00  0.00     0.001 A 
HETATM    5  C   LIG     1       1.988  -0.379  -0.286  1.00  0.00     0.002 A 
HETATM    6  C   LIG     1       1.027  -1.339   0.035  1.00  0.00     0.029 A 
HETATM    7  C   LIG     1      -0.315  -0.977   0.211  1.00  0.00     0.144 A 
HETATM    8  O   LIG     1      -1.223  -1.989   0.531  1.00  0.00    -0.189 OA
ENDROOT
TORSDOF 0
