REMARK  0 active torsions:
REMARK  status: ('A' for Active; 'I' for Inactive)
ROOT
HETATM    1  O   LIG     1       2.321  -0.889   0.273  1.00  0.00    -0.189 OA
HETATM    2  C   LIG     1       1.011  -0.431   0.127  1.00  0.00     0.141 A 
HETATM    3  C   LIG     1      -0.040  -1.350   0.242  1.00  0.00     0.028 A 
HETATM    4  C   LIG     1      -1.365  -0.930   0.102  1.00  0.00     0.002 A 
HETATM    5  C   LIG     1      -1.650   0.413  -0.154  1.00  0.00     0.001 A 
HETATM    6  C   LIG     1      -0.609   1.338  -0.271  1.00  0.00     0.013 A 
HETATM    7  C   LIG     1       0.723   0.925  -0.132  1.00  0.00     0.083 A 
HETATM    8 CL   LIG     1       1.998   2.125  -0.287  1.00  0.00    -0.080 Cl
ENDROOT
TORSDOF 0
