REMARK  0 active torsions:
REMARK  status: ('A' for Active; 'I' for Inactive)
ROOT
HETATM    1 CL   LIG     1       1.610   2.427  -0.077  1.00  0.00    -0.081 Cl
HETATM    2  C   LIG     1       0.444   1.110  -0.037  1.00  0.00     0.071 A 
HETATM    3  C   LIG     1      -0.920   1.428  -0.058  1.00  0.00     0.013 A 
HETATM    4  C   LIG     1      -1.882   0.415  -0.028  1.00  0.00     0.001 A 
HETATM    5  C   LIG     1      -1.485  -0.923   0.024  1.00  0.00     0.001 A 
HETATM    6  C   LIG     1      -0.127  -1.250   0.044  1.00  0.00     0.015 A 
HETATM    7  C   LIG     1       0.849  -0.241   0.014  1.00  0.00     0.081 A 
HETATM    8  N   LIG     1       2.235  -0.603   0.037  1.00  0.00    -0.100 NA
ENDROOT
TORSDOF 0
