REMARK  0 active torsions:
REMARK  status: ('A' for Active; 'I' for Inactive)
ROOT
HETATM    1 CL   LIG     1       2.633  -1.600   0.066  1.00  0.00    -0.082 Cl
HETATM    2  C   LIG     1       1.125  -0.697   0.029  1.00  0.00     0.068 A 
HETATM    3  C   LIG     1       1.117   0.710  -0.003  1.00  0.00     0.068 A 
HETATM    4 CL   LIG     1       2.615   1.630  -0.007  1.00  0.00    -0.082 Cl
HETATM    5  C   LIG     1      -0.102   1.397  -0.033  1.00  0.00     0.012 A 
HETATM    6  C   LIG     1      -1.309   0.691  -0.030  1.00  0.00     0.001 A 
HETATM    7  C   LIG     1      -1.301  -0.706   0.001  1.00  0.00     0.001 A 
HETATM    8  C   LIG     1      -0.087  -1.399   0.031  1.00  0.00     0.012 A 
ENDROOT
TORSDOF 0
