REMARK  0 active torsions:
REMARK  status: ('A' for Active; 'I' for Inactive)
ROOT
HETATM    1  C   LIG     1      -1.278   1.604   0.797  1.00  0.00     0.031 C 
HETATM    2  C   LIG     1      -0.277   0.590   0.303  1.00  0.00    -0.024 A 
HETATM    3  C   LIG     1       1.085   0.860   0.520  1.00  0.00     0.023 A 
HETATM    4  C   LIG     1       2.070  -0.037   0.089  1.00  0.00     0.131 A 
HETATM    5  O   LIG     1       3.420   0.233   0.304  1.00  0.00    -0.190 OA
HETATM    6  C   LIG     1       1.699  -1.212  -0.564  1.00  0.00     0.027 A 
HETATM    7  C   LIG     1       0.351  -1.497  -0.788  1.00  0.00    -0.002 A 
HETATM    8  C   LIG     1      -0.651  -0.607  -0.361  1.00  0.00    -0.026 A 
HETATM    9  C   LIG     1      -2.093  -0.954  -0.624  1.00  0.00     0.031 C 
ENDROOT
TORSDOF 0
