REMARK  0 active torsions:
REMARK  status: ('A' for Active; 'I' for Inactive)
ROOT
HETATM    1  C   LIG     1      -1.542   1.862  -0.262  1.00  0.00     0.030 C 
HETATM    2  C   LIG     1      -0.596   0.703  -0.091  1.00  0.00    -0.026 A 
HETATM    3  C   LIG     1       0.790   0.937  -0.102  1.00  0.00    -0.009 A 
HETATM    4  C   LIG     1       1.697  -0.120   0.064  1.00  0.00    -0.022 A 
HETATM    5  C   LIG     1       3.174   0.137   0.011  1.00  0.00     0.031 C 
HETATM    6  C   LIG     1       1.214  -1.426   0.209  1.00  0.00    -0.004 A 
HETATM    7  C   LIG     1      -0.160  -1.672   0.222  1.00  0.00    -0.005 A 
HETATM    8  C   LIG     1      -1.077  -0.618   0.077  1.00  0.00    -0.026 A 
HETATM    9  C   LIG     1      -2.554  -0.916   0.093  1.00  0.00     0.030 C 
ENDROOT
TORSDOF 0
