REMARK  0 active torsions:
REMARK  status: ('A' for Active; 'I' for Inactive)
ROOT
HETATM    1 CL   LIG     1      -2.578   2.062   0.648  1.00  0.00    -0.082 Cl
HETATM    2  C   LIG     1      -1.383   0.843   0.223  1.00  0.00     0.069 A 
HETATM    3  C   LIG     1      -0.034   1.087   0.509  1.00  0.00     0.026 A 
HETATM    4  C   LIG     1       0.943   0.135   0.183  1.00  0.00     0.071 A 
HETATM    5  N   LIG     1       2.319   0.388   0.476  1.00  0.00    -0.101 NA
HETATM    6  C   LIG     1       0.561  -1.065  -0.432  1.00  0.00     0.015 A 
HETATM    7  C   LIG     1      -0.784  -1.311  -0.718  1.00  0.00     0.013 A 
HETATM    8  C   LIG     1      -1.760  -0.362  -0.394  1.00  0.00     0.068 A 
HETATM    9 CL   LIG     1      -3.443  -0.708  -0.769  1.00  0.00    -0.082 Cl
ENDROOT
TORSDOF 0
