REMARK  0 active torsions:
REMARK  status: ('A' for Active; 'I' for Inactive)
ROOT
HETATM    1  O   LIG     1      -1.697   1.934   0.427  1.00  0.00    -0.191 OA
HETATM    2  C   LIG     1      -0.810   0.886   0.184  1.00  0.00     0.127 A 
HETATM    3  C   LIG     1       0.573   1.122   0.185  1.00  0.00     0.023 A 
HETATM    4  C   LIG     1       1.473   0.075  -0.061  1.00  0.00    -0.020 A 
HETATM    5  C   LIG     1       2.952   0.325  -0.020  1.00  0.00     0.031 C 
HETATM    6  C   LIG     1       0.982  -1.220  -0.276  1.00  0.00    -0.004 A 
HETATM    7  C   LIG     1      -0.395  -1.461  -0.278  1.00  0.00    -0.003 A 
HETATM    8  C   LIG     1      -1.300  -0.411  -0.059  1.00  0.00     0.004 A 
HETATM    9  C   LIG     1      -2.779  -0.677  -0.046  1.00  0.00     0.033 C 
ENDROOT
TORSDOF 0
