REMARK  0 active torsions:
REMARK  status: ('A' for Active; 'I' for Inactive)
ROOT
HETATM    1 CL   LIG     1       3.271   0.822  -0.361  1.00  0.00    -0.082 Cl
HETATM    2  C   LIG     1       1.572   0.410  -0.179  1.00  0.00     0.069 A 
HETATM    3  C   LIG     1       0.604   1.373  -0.484  1.00  0.00     0.026 A 
HETATM    4  C   LIG     1      -0.757   1.076  -0.349  1.00  0.00     0.084 A 
HETATM    5 CL   LIG     1      -1.952   2.303  -0.739  1.00  0.00    -0.080 Cl
HETATM    6  C   LIG     1      -1.157  -0.192   0.094  1.00  0.00     0.142 A 
HETATM    7  O   LIG     1      -2.512  -0.488   0.229  1.00  0.00    -0.189 OA
HETATM    8  C   LIG     1      -0.188  -1.158   0.400  1.00  0.00     0.041 A 
HETATM    9  C   LIG     1       1.174  -0.863   0.266  1.00  0.00     0.070 A 
HETATM   10 CL   LIG     1       2.358  -2.102   0.660  1.00  0.00    -0.081 Cl
ENDROOT
TORSDOF 0
