REMARK  3 active torsions:
REMARK  status: ('A' for Active; 'I' for Inactive)
REMARK    1  A    between atoms: C_2  and  C_6 
REMARK       I    between atoms: C_2  and  N_3 
REMARK    2  A    between atoms: C_6  and  C_13 
REMARK    3  A    between atoms: C_6  and  C_7 
ROOT
HETATM    1  C   LIG     1       0.037  -0.617   0.199  1.00  0.00     0.123 C 
ENDROOT
BRANCH   1   2
HETATM    2  C   LIG     1      -1.116  -0.549   1.191  1.00  0.00     0.241 C 
HETATM    3  O   LIG     1      -0.872  -0.300   2.405  1.00  0.00    -0.272 OA
HETATM    4  N   LIG     1      -2.486  -0.759   0.779  1.00  0.00    -0.316 N 
HETATM    5  C   LIG     1      -2.816  -1.227  -0.573  1.00  0.00     0.128 C 
HETATM    6  C   LIG     1      -3.560  -0.520   1.747  1.00  0.00     0.128 C 
ENDBRANCH   1   2
BRANCH   1   7
HETATM    7  C   LIG     1      -0.011   0.490  -0.842  1.00  0.00    -0.010 A 
HETATM    8  C   LIG     1      -0.502   1.777  -0.542  1.00  0.00    -0.004 A 
HETATM    9  C   LIG     1      -0.517   2.775  -1.522  1.00  0.00    -0.000 A 
HETATM   10  C   LIG     1      -0.032   2.507  -2.803  1.00  0.00    -0.000 A 
HETATM   11  C   LIG     1       0.470   1.241  -3.108  1.00  0.00    -0.000 A 
HETATM   12  C   LIG     1       0.485   0.238  -2.134  1.00  0.00    -0.004 A 
ENDBRANCH   1   7
BRANCH   1  13
HETATM   13  C   LIG     1       1.393  -0.634   0.886  1.00  0.00    -0.010 A 
HETATM   14  C   LIG     1       2.171  -1.807   0.879  1.00  0.00    -0.004 A 
HETATM   15  C   LIG     1       3.410  -1.836   1.526  1.00  0.00    -0.000 A 
HETATM   16  C   LIG     1       3.888  -0.698   2.182  1.00  0.00    -0.000 A 
HETATM   17  C   LIG     1       3.129   0.471   2.191  1.00  0.00    -0.000 A 
HETATM   18  C   LIG     1       1.887   0.507   1.553  1.00  0.00    -0.004 A 
ENDBRANCH   1  13
TORSDOF 3
