REMARK  1 active torsions:
REMARK  status: ('A' for Active; 'I' for Inactive)
REMARK    1  A    between atoms: C_1  and  C_2 
ROOT
HETATM    1  C   LIG     1      -0.253   0.000   0.316  1.00  0.00     0.007 A 
HETATM    2  C   LIG     1       0.457  -1.175   0.610  1.00  0.00    -0.002 A 
HETATM    3  C   LIG     1       1.815  -1.274   0.291  1.00  0.00    -0.000 A 
HETATM    4  C   LIG     1       2.473  -0.198  -0.313  1.00  0.00    -0.000 A 
HETATM    5  C   LIG     1       1.775   0.980  -0.595  1.00  0.00    -0.000 A 
HETATM    6  C   LIG     1       0.417   1.082  -0.278  1.00  0.00    -0.002 A 
ENDROOT
BRANCH   1   7
HETATM    7  C   LIG     1      -1.704   0.113   0.681  1.00  0.00     0.168 A 
HETATM    8  C   LIG     1      -2.647   0.415  -0.422  1.00  0.00     0.177 A 
HETATM    9  O   LIG     1      -2.463  -0.896   0.054  1.00  0.00    -0.346 OA
ENDBRANCH   1   7
TORSDOF 1
