REMARK  2 active torsions:
REMARK  status: ('A' for Active; 'I' for Inactive)
REMARK    1  A    between atoms: C_2  and  C_5 
REMARK    2  A    between atoms: C_2  and  C_3 
ROOT
HETATM    1  C   LIG     1       0.482  -1.343  -1.202  1.00  0.00     0.000 C 
HETATM    2  C   LIG     1      -0.089  -0.435  -0.099  1.00  0.00     0.000 C 
ENDROOT
BRANCH   2   3
HETATM    3  C   LIG     1       0.923   0.670   0.294  1.00  0.00     0.000 C 
HETATM    4  C   LIG     1       2.203   0.115   0.921  1.00  0.00     0.000 C 
ENDBRANCH   2   3
BRANCH   2   5
HETATM    5  C   LIG     1      -1.427   0.176  -0.581  1.00  0.00     0.000 C 
HETATM    6  C   LIG     1      -2.240   0.812   0.549  1.00  0.00     0.000 C 
ENDBRANCH   2   5
TORSDOF 2
