REMARK  2 active torsions:
REMARK  status: ('A' for Active; 'I' for Inactive)
REMARK    1  A    between atoms: C_2  and  C_5 
REMARK    2  A    between atoms: C_2  and  C_3 
ROOT
HETATM    1 CL   LIG     1      -0.082  -1.597   1.447  1.00  0.00    -0.113 Cl
HETATM    2  C   LIG     1       0.075  -0.035   0.586  1.00  0.00     0.113 C 
ENDROOT
BRANCH   2   3
HETATM    3  C   LIG     1      -1.283   0.398   0.016  1.00  0.00     0.113 C 
HETATM    4 CL   LIG     1      -1.929  -0.765  -1.179  1.00  0.00    -0.113 Cl
ENDBRANCH   2   3
BRANCH   2   5
HETATM    5  C   LIG     1       1.152  -0.122  -0.504  1.00  0.00     0.113 C 
HETATM    6 CL   LIG     1       2.770  -0.334   0.218  1.00  0.00    -0.113 Cl
ENDBRANCH   2   5
TORSDOF 2
