REMARK  0 active torsions:
REMARK  status: ('A' for Active; 'I' for Inactive)
ROOT
HETATM    1  C   LIG     1      -1.792   0.226  -0.601  1.00  0.00     0.000 C 
HETATM    2  C   LIG     1      -0.773   0.269   0.547  1.00  0.00     0.000 C 
HETATM    3  C   LIG     1      -0.090  -1.082   0.739  1.00  0.00     0.000 C 
HETATM    4  C   LIG     1       1.161  -1.052  -0.131  1.00  0.00     0.000 C 
HETATM    5  C   LIG     1       1.451   0.415  -0.442  1.00  0.00     0.000 C 
HETATM    6  C   LIG     1       0.368   1.237   0.247  1.00  0.00     0.000 C 
ENDROOT
TORSDOF 0
