REMARK  2 active torsions:
REMARK  status: ('A' for Active; 'I' for Inactive)
REMARK    1  A    between atoms: C_2  and  C_5 
REMARK    2  A    between atoms: C_2  and  O_3 
ROOT
HETATM    1  O   LIG     1       0.650  -1.310  -1.541  1.00  0.00    -0.259 OA
HETATM    2  C   LIG     1       0.004  -0.565  -0.755  1.00  0.00     0.296 C 
ENDROOT
BRANCH   2   3
HETATM    3  C   LIG     1      -1.417  -0.846  -0.508  1.00  0.00     0.068 C 
HETATM    4  C   LIG     1      -2.156  -0.100   0.310  1.00  0.00     0.006 C 
ENDBRANCH   2   3
BRANCH   2   5
HETATM    5  O   LIG     1       0.633   0.516  -0.128  1.00  0.00    -0.296 OA
HETATM    6  C   LIG     1       2.005   0.830  -0.334  1.00  0.00     0.185 C 
ENDBRANCH   2   5
TORSDOF 2
