REMARK  0 active torsions:
REMARK  status: ('A' for Active; 'I' for Inactive)
ROOT
HETATM    1  C   LIG     1       1.844  -0.614  -0.208  1.00  0.00     0.032 C 
HETATM    2  C   LIG     1       0.526  -0.079  -0.772  1.00  0.00     0.116 C 
HETATM    3  C   LIG     1       0.002   1.101   0.042  1.00  0.00     0.032 C 
HETATM    4  C   LIG     1      -1.104   0.498   0.851  1.00  0.00     0.035 C 
HETATM    5  C   LIG     1      -1.528  -0.684   0.009  1.00  0.00     0.142 C 
HETATM    6  O   LIG     1      -0.434  -1.115  -0.767  1.00  0.00    -0.357 OA
ENDROOT
TORSDOF 0
