REMARK  0 active torsions:
REMARK  status: ('A' for Active; 'I' for Inactive)
ROOT
HETATM    1  S   LIG     1       2.958   0.094   0.012  1.00  0.00    -0.037 SA
HETATM    2  C   LIG     1       1.325   0.042   0.005  1.00  0.00     0.212 A 
HETATM    3  N   LIG     1       0.578  -1.147   0.119  1.00  0.00    -0.242 NA
HETATM    4  C   LIG     1      -0.836  -0.798   0.074  1.00  0.00     0.154 A 
HETATM    5  C   LIG     1      -0.884   0.743  -0.081  1.00  0.00     0.154 A 
HETATM    6  N   LIG     1       0.504   1.181  -0.115  1.00  0.00    -0.242 NA
ENDROOT
TORSDOF 0
