REMARK  0 active torsions:
REMARK  status: ('A' for Active; 'I' for Inactive)
ROOT
HETATM    1  O   LIG     1       2.357  -1.247   0.064  1.00  0.00    -0.264 OA
HETATM    2  C   LIG     1       1.212  -0.734  -0.046  1.00  0.00     0.272 A 
HETATM    3  C   LIG     1       0.753   0.434   0.729  1.00  0.00     0.098 A 
HETATM    4  C   LIG     1      -0.679   0.637   0.218  1.00  0.00     0.043 A 
HETATM    5  C   LIG     1      -0.934  -0.459  -0.836  1.00  0.00     0.152 A 
HETATM    6  O   LIG     1       0.259  -1.216  -0.911  1.00  0.00    -0.302 OA
ENDROOT
TORSDOF 0
