REMARK  0 active torsions:
REMARK  status: ('A' for Active; 'I' for Inactive)
ROOT
HETATM    1  N   LIG     1      -2.115  -0.165  -0.069  1.00  0.00    -0.072 NA
HETATM    2  C   LIG     1      -0.696  -0.106  -0.178  1.00  0.00     0.181 A 
HETATM    3  N   LIG     1      -0.021   1.031  -0.444  1.00  0.00    -0.223 NA
HETATM    4  C   LIG     1       1.320   0.810  -0.494  1.00  0.00     0.108 A 
HETATM    5  C   LIG     1       1.711  -0.506  -0.267  1.00  0.00     0.059 A 
HETATM    6  S   LIG     1       0.328  -1.425   0.006  1.00  0.00    -0.052 SA
ENDROOT
TORSDOF 0
