REMARK  2 active torsions:
REMARK  status: ('A' for Active; 'I' for Inactive)
REMARK    1  A    between atoms: C_7  and  C_8 
REMARK       I    between atoms: C_8  and  N_9 
REMARK    2  A    between atoms: N_9  and  C_10 
ROOT
HETATM    1  C   LIG     1       0.172   0.153   0.524  1.00  0.00     0.287 C 
HETATM    2  N   LIG     1      -0.931   0.686  -0.222  1.00  0.00    -0.211 NA
HETATM    3  O   LIG     1      -0.038  -0.396   1.640  1.00  0.00    -0.268 OA
ENDROOT
BRANCH   1   4
HETATM    4  C   LIG     1       1.588   0.336   0.019  1.00  0.00     0.299 C 
HETATM    5  N   LIG     1       2.589  -0.393   0.839  1.00  0.00     0.146 N 
HETATM    6  C   LIG     1       2.468  -1.867   0.768  1.00  0.00     0.286 C 
HETATM    7  C   LIG     1       3.976   0.042   0.527  1.00  0.00     0.251 C 
HETATM    8  C   LIG     1       4.164   0.577  -0.915  1.00  0.00     0.035 C 
HETATM    9  C   LIG     1       3.217  -0.095  -1.917  1.00  0.00     0.005 C 
HETATM   10  C   LIG     1       1.738  -0.009  -1.481  1.00  0.00     0.043 C 
ENDBRANCH   1   4
BRANCH   2  11
HETATM   11  C   LIG     1      -2.296   0.403   0.127  1.00  0.00     0.076 A 
HETATM   12  C   LIG     1      -2.802  -0.916   0.043  1.00  0.00    -0.004 A 
HETATM   13  C   LIG     1      -4.132  -1.170   0.415  1.00  0.00    -0.003 A 
HETATM   14  C   LIG     1      -1.943  -2.061  -0.423  1.00  0.00     0.033 C 
HETATM   15  C   LIG     1      -4.964  -0.128   0.821  1.00  0.00    -0.001 A 
HETATM   16  C   LIG     1      -4.481   1.179   0.868  1.00  0.00    -0.003 A 
HETATM   17  C   LIG     1      -3.148   1.456   0.529  1.00  0.00    -0.004 A 
HETATM   18  C   LIG     1      -2.643   2.872   0.595  1.00  0.00     0.033 C 
ENDBRANCH   2  11
TORSDOF 2
