REMARK  2 active torsions:
REMARK  status: ('A' for Active; 'I' for Inactive)
REMARK    1  A    between atoms: C_3  and  C_9 
REMARK    2  A    between atoms: C_9  and  C_10 
ROOT
HETATM    1  C   LIG     1      -0.032  -1.223   0.865  1.00  0.00     0.057 C 
ENDROOT
BRANCH   1   2
HETATM    2  C   LIG     1       1.217  -0.642   0.246  1.00  0.00     0.009 A 
HETATM    3  C   LIG     1       1.456  -0.747  -1.139  1.00  0.00     0.127 A 
HETATM    4  O   LIG     1       0.550  -1.416  -1.960  1.00  0.00    -0.191 OA
HETATM    5  C   LIG     1       2.611  -0.176  -1.694  1.00  0.00     0.028 A 
HETATM    6  C   LIG     1       3.523   0.501  -0.882  1.00  0.00     0.013 A 
HETATM    7  C   LIG     1       3.288   0.615   0.491  1.00  0.00     0.058 A 
HETATM    8  C   LIG     1       2.140   0.047   1.053  1.00  0.00     0.009 A 
HETATM    9 CL   LIG     1       4.431   1.472   1.508  1.00  0.00    -0.082 Cl
ENDBRANCH   1   2
BRANCH   1  10
HETATM   10  C   LIG     1      -1.220  -0.314   0.630  1.00  0.00     0.009 A 
HETATM   11  C   LIG     1      -1.251   0.913   1.321  1.00  0.00     0.009 A 
HETATM   12  C   LIG     1      -2.314   1.803   1.156  1.00  0.00     0.058 A 
HETATM   13  C   LIG     1      -3.367   1.479   0.301  1.00  0.00     0.013 A 
HETATM   14 CL   LIG     1      -2.327   3.326   2.026  1.00  0.00    -0.082 Cl
HETATM   15  C   LIG     1      -3.358   0.268  -0.389  1.00  0.00     0.028 A 
HETATM   16  C   LIG     1      -2.299  -0.637  -0.239  1.00  0.00     0.127 A 
HETATM   17  O   LIG     1      -2.367  -1.825  -0.972  1.00  0.00    -0.191 OA
ENDBRANCH   1  10
TORSDOF 2
