REMARK  1 active torsions:
REMARK  status: ('A' for Active; 'I' for Inactive)
REMARK       I    between atoms: C_2  and  N_3 
REMARK    1  A    between atoms: N_3  and  C_4 
ROOT
HETATM    1  C   LIG     1      -0.284   0.261   0.844  1.00  0.00     0.295 A 
HETATM    2  C   LIG     1      -1.339   1.286   0.536  1.00  0.00     0.306 A 
HETATM    3  N   LIG     1      -2.574   0.698   0.159  1.00  0.00    -0.152 NA
HETATM    4  O   LIG     1      -1.167   2.531   0.614  1.00  0.00    -0.266 OA
HETATM    5  N   LIG     1      -0.995  -0.998   0.634  1.00  0.00    -0.185 NA
HETATM    6  C   LIG     1      -2.324  -0.691   0.235  1.00  0.00     0.369 A 
HETATM    7  O   LIG     1      -3.191  -1.567  -0.020  1.00  0.00    -0.243 OA
ENDROOT
BRANCH   1   8
HETATM    8  N   LIG     1       0.845   0.366  -0.082  1.00  0.00    -0.189 NA
HETATM    9  C   LIG     1       2.023  -0.436   0.069  1.00  0.00     0.352 C 
HETATM   10  N   LIG     1       3.098  -0.308  -0.861  1.00  0.00    -0.038 NA
HETATM   11  O   LIG     1       2.119  -1.257   1.021  1.00  0.00    -0.249 OA
ENDBRANCH   1   8
TORSDOF 1
