REMARK  3 active torsions:
REMARK  status: ('A' for Active; 'I' for Inactive)
REMARK    1  A    between atoms: C_3  and  O_4 
REMARK    2  A    between atoms: C_7  and  C_8 
REMARK    3  A    between atoms: C_8  and  C_9 
ROOT
HETATM    1  O   LIG     1      -2.719  -2.168   1.010  1.00  0.00    -0.188 OA
HETATM    2  C   LIG     1      -1.536  -1.561   0.592  1.00  0.00     0.153 A 
HETATM    3  C   LIG     1      -1.583  -0.300  -0.020  1.00  0.00     0.119 A 
HETATM    4  C   LIG     1      -0.383   0.308  -0.441  1.00  0.00     0.022 A 
HETATM    5  C   LIG     1       0.848  -0.341  -0.257  1.00  0.00    -0.016 A 
HETATM    6  C   LIG     1       0.879  -1.598   0.366  1.00  0.00    -0.002 A 
HETATM    7  C   LIG     1      -0.307  -2.205   0.784  1.00  0.00     0.029 A 
ENDROOT
BRANCH   5   8
HETATM    8  C   LIG     1       2.128   0.329  -0.684  1.00  0.00     0.052 C 
BRANCH   8   9
HETATM    9  C   LIG     1       2.556   1.357   0.326  1.00  0.00    -0.021 C 
HETATM   10  C   LIG     1       3.010   1.009   1.534  1.00  0.00    -0.005 C 
ENDBRANCH   8   9
ENDBRANCH   5   8
BRANCH   3  11
HETATM   11  O   LIG     1      -2.833   0.315  -0.190  1.00  0.00    -0.326 OA
HETATM   12  C   LIG     1      -3.029   1.591  -0.791  1.00  0.00     0.181 C 
ENDBRANCH   3  11
TORSDOF 3
