REMARK  9 active torsions:
REMARK  status: ('A' for Active; 'I' for Inactive)
REMARK    1  A    between atoms: C_2  and  N_12 
REMARK    2  A    between atoms: C_2  and  S_3 
REMARK    3  A    between atoms: S_3  and  S_4 
REMARK    4  A    between atoms: S_4  and  C_5 
REMARK    5  A    between atoms: C_5  and  N_6 
REMARK    6  A    between atoms: N_6  and  C_7 
REMARK    7  A    between atoms: N_6  and  C_9 
REMARK    8  A    between atoms: N_12  and  C_13 
REMARK    9  A    between atoms: N_12  and  C_15 
ROOT
HETATM    1  S   LIG     1       0.361  -2.101   0.480  1.00  0.00    -0.020 SA
ENDROOT
BRANCH   1   2
HETATM    2  C   LIG     1       1.837  -1.320   1.138  1.00  0.00     0.149 C 
HETATM    3  S   LIG     1       2.685  -2.127   2.288  1.00  0.00    -0.052 SA
BRANCH   2   4
HETATM    4  N   LIG     1       2.322  -0.071   0.596  1.00  0.00    -0.335 N 
BRANCH   4   5
HETATM    5  C   LIG     1       2.057   0.281  -0.808  1.00  0.00     0.103 C 
HETATM    6  C   LIG     1       2.811  -0.651  -1.754  1.00  0.00     0.026 C 
ENDBRANCH   4   5
BRANCH   4   7
HETATM    7  C   LIG     1       3.065   0.874   1.442  1.00  0.00     0.103 C 
HETATM    8  C   LIG     1       4.565   0.763   1.188  1.00  0.00     0.026 C 
ENDBRANCH   4   7
ENDBRANCH   2   4
ENDBRANCH   1   2
BRANCH   1   9
HETATM    9  S   LIG     1      -0.891  -1.342   2.034  1.00  0.00    -0.020 SA
BRANCH   9  10
HETATM   10  C   LIG     1      -1.388   0.097   1.081  1.00  0.00     0.149 C 
HETATM   11  S   LIG     1      -0.582   1.499   1.355  1.00  0.00    -0.052 SA
BRANCH  10  12
HETATM   12  N   LIG     1      -2.529   0.051   0.192  1.00  0.00    -0.335 N 
BRANCH  12  13
HETATM   13  C   LIG     1      -3.594  -0.944   0.389  1.00  0.00     0.103 C 
HETATM   14  C   LIG     1      -3.343  -2.192  -0.452  1.00  0.00     0.026 C 
ENDBRANCH  12  13
BRANCH  12  15
HETATM   15  C   LIG     1      -2.661   1.010  -0.916  1.00  0.00     0.103 C 
HETATM   16  C   LIG     1      -3.476   2.229  -0.490  1.00  0.00     0.026 C 
ENDBRANCH  12  15
ENDBRANCH  10  12
ENDBRANCH   9  10
ENDBRANCH   1   9
TORSDOF 9
