REMARK  1 active torsions:
REMARK  status: ('A' for Active; 'I' for Inactive)
REMARK    1  A    between atoms: C_2  and  C_4 
ROOT
HETATM    1  C   LIG     1       0.393   0.016   0.084  1.00  0.00    -0.022 A 
HETATM    2  C   LIG     1       1.215  -0.851  -0.672  1.00  0.00    -0.004 A 
HETATM    3  C   LIG     1       2.598  -0.891  -0.473  1.00  0.00    -0.000 A 
HETATM    4  C   LIG     1       3.192  -0.069   0.483  1.00  0.00     0.000 A 
HETATM    5  C   LIG     1       2.404   0.794   1.242  1.00  0.00    -0.000 A 
HETATM    6  C   LIG     1       1.020   0.841   1.050  1.00  0.00    -0.004 A 
ENDROOT
BRANCH   1   7
HETATM    7  C   LIG     1      -1.130   0.031  -0.164  1.00  0.00     0.019 C 
HETATM    8  C   LIG     1      -1.710  -1.375   0.106  1.00  0.00     0.004 C 
HETATM    9  C   LIG     1      -1.883   1.032   0.745  1.00  0.00     0.004 C 
HETATM   10  C   LIG     1      -1.408   0.428  -1.630  1.00  0.00     0.004 C 
ENDBRANCH   1   7
TORSDOF 1
