REMARK  1 active torsions:
REMARK  status: ('A' for Active; 'I' for Inactive)
REMARK    1  A    between atoms: C_2  and  C_4 
ROOT
HETATM    1  C   LIG     1      -1.059  -0.090   0.029  1.00  0.00     0.072 A 
HETATM    2  C   LIG     1       0.103  -0.879   0.070  1.00  0.00     0.018 A 
HETATM    3  C   LIG     1       1.372  -0.286  -0.004  1.00  0.00     0.070 A 
HETATM    4  N   LIG     1       2.549  -1.097   0.039  1.00  0.00    -0.101 NA
HETATM    5  C   LIG     1       1.480   1.106  -0.121  1.00  0.00     0.014 A 
HETATM    6  C   LIG     1       0.330   1.898  -0.164  1.00  0.00     0.001 A 
HETATM    7  C   LIG     1      -0.934   1.307  -0.089  1.00  0.00     0.004 A 
ENDROOT
BRANCH   1   8
HETATM    8  C   LIG     1      -2.409  -0.758   0.112  1.00  0.00     0.419 C 
HETATM    9  F   LIG     1      -3.442   0.162   0.057  1.00  0.00    -0.166 F 
HETATM   10  F   LIG     1      -2.550  -1.642  -0.943  1.00  0.00    -0.166 F 
HETATM   11  F   LIG     1      -2.504  -1.457   1.302  1.00  0.00    -0.166 F 
ENDBRANCH   1   8
TORSDOF 1
