REMARK  1 active torsions:
REMARK  status: ('A' for Active; 'I' for Inactive)
REMARK    1  A    between atoms: C_2  and  C_4 
ROOT
HETATM    1  C   LIG     1       0.185   0.061   0.001  1.00  0.00    -0.023 A 
HETATM    2  C   LIG     1       0.989   1.212   0.185  1.00  0.00    -0.002 A 
HETATM    3  C   LIG     1       2.381   1.140   0.082  1.00  0.00     0.027 A 
HETATM    4  C   LIG     1       3.006  -0.073  -0.205  1.00  0.00     0.131 A 
HETATM    5  O   LIG     1       4.395  -0.126  -0.304  1.00  0.00    -0.190 OA
HETATM    6  C   LIG     1       2.233  -1.222  -0.391  1.00  0.00     0.027 A 
HETATM    7  C   LIG     1       0.841  -1.157  -0.290  1.00  0.00    -0.002 A 
ENDROOT
BRANCH   1   8
HETATM    8  C   LIG     1      -1.354   0.091   0.104  1.00  0.00     0.019 C 
HETATM    9  C   LIG     1      -1.913   1.498   0.428  1.00  0.00     0.004 C 
HETATM   10  C   LIG     1      -1.813  -0.864   1.227  1.00  0.00     0.004 C 
HETATM   11  C   LIG     1      -1.970  -0.360  -1.238  1.00  0.00     0.004 C 
ENDBRANCH   1   8
TORSDOF 1
