REMARK  1 active torsions:
REMARK  status: ('A' for Active; 'I' for Inactive)
REMARK    1  A    between atoms: C_2  and  C_3 
ROOT
HETATM    1  C   LIG     1       0.856   0.684  -0.495  1.00  0.00     0.087 C 
HETATM    2  C   LIG     1      -0.392   1.481  -0.051  1.00  0.00     0.011 C 
HETATM    3  C   LIG     1      -1.304   0.651   0.863  1.00  0.00     0.001 C 
HETATM    4  C   LIG     1      -1.725  -0.654   0.179  1.00  0.00     0.000 C 
HETATM    5  C   LIG     1      -0.501  -1.471  -0.249  1.00  0.00     0.001 C 
HETATM    6  C   LIG     1       0.428  -0.647  -1.155  1.00  0.00     0.011 C 
ENDROOT
BRANCH   1   7
HETATM    7  C   LIG     1       1.833   0.487   0.645  1.00  0.00     0.185 C 
HETATM    8  O   LIG     1       2.132   1.459   1.390  1.00  0.00    -0.647 OA
HETATM    9  O   LIG     1       2.464  -0.739   0.840  1.00  0.00    -0.647 OA
ENDBRANCH   1   7
TORSDOF 1
