REMARK  1 active torsions:
REMARK  status: ('A' for Active; 'I' for Inactive)
REMARK    1  A    between atoms: C_2  and  C_4 
ROOT
HETATM    1  C   LIG     1       0.173  -0.215   0.016  1.00  0.00    -0.022 A 
HETATM    2  C   LIG     1       1.082  -1.287   0.088  1.00  0.00    -0.004 A 
HETATM    3  C   LIG     1       2.444  -1.078  -0.154  1.00  0.00    -0.000 A 
HETATM    4  C   LIG     1       2.912   0.200  -0.470  1.00  0.00    -0.000 A 
HETATM    5  C   LIG     1       2.019   1.272  -0.544  1.00  0.00    -0.000 A 
HETATM    6  C   LIG     1       0.657   1.069  -0.303  1.00  0.00    -0.004 A 
ENDROOT
BRANCH   1   7
HETATM    7  C   LIG     1      -1.302  -0.454   0.280  1.00  0.00     0.022 C 
HETATM    8  C   LIG     1      -2.145  -0.128  -0.959  1.00  0.00     0.004 C 
HETATM    9  C   LIG     1      -1.781   0.346   1.498  1.00  0.00     0.004 C 
ENDBRANCH   1   7
TORSDOF 1
