REMARK  1 active torsions:
REMARK  status: ('A' for Active; 'I' for Inactive)
REMARK    1  A    between atoms: C_2  and  C_3 
ROOT
HETATM    1  C   LIG     1       0.215   0.333   0.023  1.00  0.00     0.035 A 
HETATM    2  C   LIG     1      -0.736   1.371   0.093  1.00  0.00     0.003 A 
HETATM    3  C   LIG     1      -2.104   1.085   0.073  1.00  0.00     0.000 A 
HETATM    4  C   LIG     1      -2.542  -0.238  -0.018  1.00  0.00     0.000 A 
HETATM    5  C   LIG     1      -1.613  -1.277  -0.088  1.00  0.00     0.000 A 
HETATM    6  C   LIG     1      -0.243  -0.998  -0.068  1.00  0.00     0.003 A 
ENDROOT
BRANCH   1   7
HETATM    7  C   LIG     1       1.668   0.651   0.045  1.00  0.00     0.173 C 
HETATM    8  C   LIG     1       2.716  -0.419  -0.027  1.00  0.00     0.077 C 
HETATM    9  O   LIG     1       2.044   1.852   0.128  1.00  0.00    -0.291 OA
ENDBRANCH   1   7
TORSDOF 1
