REMARK  1 active torsions:
REMARK  status: ('A' for Active; 'I' for Inactive)
REMARK    1  A    between atoms: C_2  and  C_3 
ROOT
HETATM    1  C   LIG     1      -0.033   0.239  -0.092  1.00  0.00     0.008 A 
HETATM    2  C   LIG     1       0.793   1.197   0.524  1.00  0.00    -0.002 A 
HETATM    3  C   LIG     1       2.183   1.045   0.509  1.00  0.00    -0.000 A 
HETATM    4  C   LIG     1       2.761  -0.059  -0.121  1.00  0.00    -0.000 A 
HETATM    5  C   LIG     1       1.951  -1.014  -0.740  1.00  0.00    -0.000 A 
HETATM    6  C   LIG     1       0.561  -0.868  -0.728  1.00  0.00    -0.002 A 
ENDROOT
BRANCH   1   7
HETATM    7  C   LIG     1      -1.535   0.404  -0.077  1.00  0.00     0.174 C 
HETATM    8  C   LIG     1      -2.192  -0.697   0.761  1.00  0.00     0.041 C 
HETATM    9  O   LIG     1      -2.020   0.363  -1.395  1.00  0.00    -0.219 OA
ENDBRANCH   1   7
TORSDOF 1
