REMARK  1 active torsions:
REMARK  status: ('A' for Active; 'I' for Inactive)
REMARK    1  A    between atoms: C_2  and  C_3 
ROOT
HETATM    1  C   LIG     1      -0.319  -0.321   0.073  1.00  0.00     0.072 A 
HETATM    2  C   LIG     1       0.470   0.843   0.104  1.00  0.00     0.007 A 
HETATM    3  C   LIG     1       1.863   0.746   0.118  1.00  0.00     0.021 A 
HETATM    4  C   LIG     1       2.463  -0.513   0.106  1.00  0.00     0.099 A 
HETATM    5  N   LIG     1       1.693  -1.632   0.087  1.00  0.00    -0.242 NA
HETATM    6  C   LIG     1       0.335  -1.567   0.074  1.00  0.00     0.103 A 
ENDROOT
BRANCH   1   7
HETATM    7  C   LIG     1      -1.800  -0.256   0.065  1.00  0.00     0.268 C 
HETATM    8  N   LIG     1      -2.495   0.915  -0.374  1.00  0.00    -0.057 NA
HETATM    9  O   LIG     1      -2.471  -1.256   0.438  1.00  0.00    -0.271 OA
ENDBRANCH   1   7
TORSDOF 1
