REMARK  1 active torsions:
REMARK  status: ('A' for Active; 'I' for Inactive)
REMARK    1  A    between atoms: C_2  and  C_3 
ROOT
HETATM    1  C   LIG     1       0.284   0.263  -0.141  1.00  0.00     0.153 A 
HETATM    2  C   LIG     1      -0.501   1.377  -0.481  1.00  0.00     0.122 A 
HETATM    3  N   LIG     1      -1.856   1.268  -0.482  1.00  0.00    -0.239 NA
HETATM    4  C   LIG     1      -2.470   0.100  -0.159  1.00  0.00     0.120 A 
HETATM    5  C   LIG     1      -1.696  -1.010   0.179  1.00  0.00     0.120 A 
HETATM    6  N   LIG     1      -0.341  -0.904   0.180  1.00  0.00    -0.236 NA
ENDROOT
BRANCH   1   7
HETATM    7  C   LIG     1       1.760   0.338  -0.128  1.00  0.00     0.285 C 
HETATM    8  N   LIG     1       2.547  -0.803   0.220  1.00  0.00    -0.056 NA
HETATM    9  O   LIG     1       2.341   1.416  -0.425  1.00  0.00    -0.269 OA
ENDBRANCH   1   7
TORSDOF 1
