REMARK  1 active torsions:
REMARK  status: ('A' for Active; 'I' for Inactive)
REMARK    1  A    between atoms: C_2  and  C_3 
ROOT
HETATM    1  C   LIG     1       1.159   0.214  -0.435  1.00  0.00     0.064 A 
HETATM    2  C   LIG     1       0.204  -0.698   0.054  1.00  0.00     0.002 A 
HETATM    3  C   LIG     1      -1.115  -0.286   0.306  1.00  0.00    -0.022 A 
HETATM    4  C   LIG     1      -2.115  -1.257   0.862  1.00  0.00     0.031 C 
HETATM    5  C   LIG     1      -1.474   1.052   0.093  1.00  0.00    -0.004 A 
HETATM    6  C   LIG     1      -0.537   1.960  -0.403  1.00  0.00    -0.000 A 
HETATM    7  C   LIG     1       0.769   1.544  -0.672  1.00  0.00     0.006 A 
ENDROOT
BRANCH   1   8
HETATM    8  C   LIG     1       2.551  -0.211  -0.719  1.00  0.00     0.211 C 
HETATM    9  O   LIG     1       3.255   0.453  -1.526  1.00  0.00    -0.644 OA
HETATM   10  O   LIG     1       3.120  -1.325  -0.102  1.00  0.00    -0.644 OA
ENDBRANCH   1   8
TORSDOF 1
