REMARK  1 active torsions:
REMARK  status: ('A' for Active; 'I' for Inactive)
REMARK    1  A    between atoms: C_2  and  C_3 
ROOT
HETATM    1  C   LIG     1      -0.559   0.182  -0.032  1.00  0.00     0.036 A 
HETATM    2  C   LIG     1       0.575   0.801  -0.594  1.00  0.00     0.017 A 
HETATM    3  C   LIG     1       1.852   0.243  -0.430  1.00  0.00     0.070 A 
HETATM    4  N   LIG     1       2.995   0.882  -1.005  1.00  0.00    -0.101 NA
HETATM    5  C   LIG     1       2.002  -0.942   0.300  1.00  0.00     0.014 A 
HETATM    6  C   LIG     1       0.886  -1.565   0.862  1.00  0.00     0.001 A 
HETATM    7  C   LIG     1      -0.386  -1.010   0.699  1.00  0.00     0.003 A 
ENDROOT
BRANCH   1   8
HETATM    8  C   LIG     1      -1.906   0.787  -0.217  1.00  0.00     0.173 C 
HETATM    9  C   LIG     1      -3.141   0.165   0.362  1.00  0.00     0.077 C 
HETATM   10  O   LIG     1      -2.027   1.855  -0.876  1.00  0.00    -0.291 OA
ENDBRANCH   1   8
TORSDOF 1
