REMARK  2 active torsions:
REMARK  status: ('A' for Active; 'I' for Inactive)
REMARK    1  A    between atoms: C_2  and  C_3 
REMARK    2  A    between atoms: C_2  and  O_12 
ROOT
HETATM    1  C   LIG     1       0.262  -0.339   0.020  1.00  0.00     0.067 A 
HETATM    2  C   LIG     1      -0.671  -1.372  -0.179  1.00  0.00     0.035 A 
HETATM    3  C   LIG     1      -2.044  -1.128  -0.040  1.00  0.00     0.158 A 
HETATM    4  O   LIG     1      -2.965  -2.155  -0.238  1.00  0.00    -0.188 OA
HETATM    5  C   LIG     1      -0.201   0.942   0.361  1.00  0.00     0.035 A 
HETATM    6  C   LIG     1      -1.574   1.191   0.502  1.00  0.00     0.158 A 
HETATM    7  O   LIG     1      -2.022   2.467   0.841  1.00  0.00    -0.188 OA
HETATM    8  C   LIG     1      -2.498   0.152   0.301  1.00  0.00     0.181 A 
HETATM    9  O   LIG     1      -3.869   0.376   0.435  1.00  0.00    -0.186 OA
ENDROOT
BRANCH   1  10
HETATM   10  C   LIG     1       1.713  -0.594  -0.127  1.00  0.00     0.296 C 
HETATM   11  O   LIG     1       2.126  -1.747  -0.434  1.00  0.00    -0.259 OA
BRANCH  10  12
HETATM   12  O   LIG     1       2.627   0.446   0.075  1.00  0.00    -0.296 OA
HETATM   13  C   LIG     1       4.033   0.267  -0.051  1.00  0.00     0.185 C 
ENDBRANCH  10  12
ENDBRANCH   1  10
TORSDOF 2
