REMARK  5 active torsions:
REMARK  status: ('A' for Active; 'I' for Inactive)
REMARK    1  A    between atoms: C_2  and  C_4 
REMARK    2  A    between atoms: C_4  and  C_8 
REMARK    3  A    between atoms: C_4  and  C_5 
REMARK    4  A    between atoms: C_5  and  C_6 
REMARK    5  A    between atoms: C_8  and  C_9 
ROOT
HETATM    1  C   LIG     1      -0.086  -0.365  -0.012  1.00  0.00     0.087 C 
ENDROOT
BRANCH   1   2
HETATM    2  C   LIG     1       0.396  -1.683  -0.561  1.00  0.00     0.185 C 
HETATM    3  O   LIG     1       0.821  -2.582   0.213  1.00  0.00    -0.647 OA
HETATM    4  O   LIG     1       0.335  -1.922  -1.931  1.00  0.00    -0.647 OA
ENDBRANCH   1   2
BRANCH   1   5
HETATM    5  C   LIG     1       1.004   0.304   0.868  1.00  0.00     0.011 C 
BRANCH   5   6
HETATM    6  C   LIG     1       2.092   1.037   0.061  1.00  0.00     0.001 C 
HETATM    7  C   LIG     1       3.066   0.093  -0.643  1.00  0.00     0.000 C 
ENDBRANCH   5   6
ENDBRANCH   1   5
BRANCH   1   8
HETATM    8  C   LIG     1      -1.395  -0.600   0.783  1.00  0.00     0.011 C 
BRANCH   8   9
HETATM    9  C   LIG     1      -2.265   0.663   0.939  1.00  0.00     0.001 C 
HETATM   10  C   LIG     1      -3.039   1.005  -0.335  1.00  0.00     0.000 C 
ENDBRANCH   8   9
ENDBRANCH   1   8
TORSDOF 5
