REMARK  2 active torsions:
REMARK  status: ('A' for Active; 'I' for Inactive)
REMARK    1  A    between atoms: C_5  and  C_6 
REMARK    2  A    between atoms: C_6  and  O_7 
ROOT
HETATM    1  O   LIG     1       4.084   0.515   0.095  1.00  0.00    -0.190 OA
HETATM    2  C   LIG     1       2.716   0.252   0.063  1.00  0.00     0.131 A 
HETATM    3  C   LIG     1       1.808   1.314   0.047  1.00  0.00     0.028 A 
HETATM    4  C   LIG     1       0.433   1.066   0.015  1.00  0.00     0.007 A 
HETATM    5  C   LIG     1      -0.053  -0.254  -0.002  1.00  0.00     0.063 A 
HETATM    6  C   LIG     1       0.868  -1.319   0.014  1.00  0.00     0.007 A 
HETATM    7  C   LIG     1       2.242  -1.066   0.046  1.00  0.00     0.028 A 
ENDROOT
BRANCH   5   8
HETATM    8  C   LIG     1      -1.509  -0.514  -0.037  1.00  0.00     0.296 C 
HETATM    9  O   LIG     1      -1.940  -1.700  -0.052  1.00  0.00    -0.259 OA
BRANCH   8  10
HETATM   10  O   LIG     1      -2.408   0.558  -0.052  1.00  0.00    -0.296 OA
HETATM   11  C   LIG     1      -3.819   0.376  -0.085  1.00  0.00     0.185 C 
ENDBRANCH   8  10
ENDBRANCH   5   8
TORSDOF 2
