REMARK  1 active torsions:
REMARK  status: ('A' for Active; 'I' for Inactive)
REMARK    1  A    between atoms: C_2  and  C_3 
ROOT
HETATM    1  C   LIG     1      -0.422  -0.281  -0.162  1.00  0.00    -0.022 A 
HETATM    2  C   LIG     1      -0.016   0.823   0.613  1.00  0.00    -0.004 A 
HETATM    3  C   LIG     1       1.339   1.142   0.737  1.00  0.00    -0.004 A 
HETATM    4  C   LIG     1       2.312   0.359   0.102  1.00  0.00    -0.022 A 
HETATM    5  C   LIG     1       3.763   0.727   0.203  1.00  0.00     0.031 C 
HETATM    6  C   LIG     1       1.913  -0.730  -0.686  1.00  0.00    -0.004 A 
HETATM    7  C   LIG     1       0.558  -1.051  -0.811  1.00  0.00    -0.004 A 
ENDROOT
BRANCH   1   8
HETATM    8  C   LIG     1      -1.889  -0.640  -0.306  1.00  0.00     0.022 C 
HETATM    9  C   LIG     1      -2.506  -0.999   1.051  1.00  0.00     0.005 C 
HETATM   10  C   LIG     1      -2.671   0.491  -0.985  1.00  0.00     0.005 C 
ENDBRANCH   1   8
TORSDOF 1
