REMARK  1 active torsions:
REMARK  status: ('A' for Active; 'I' for Inactive)
REMARK    1  A    between atoms: C_2  and  C_3 
ROOT
HETATM    1  C   LIG     1       0.689  -0.344  -0.442  1.00  0.00     0.035 A 
HETATM    2  C   LIG     1      -0.280  -1.305  -0.792  1.00  0.00     0.004 A 
HETATM    3  C   LIG     1      -1.633  -1.086  -0.516  1.00  0.00     0.014 A 
HETATM    4  C   LIG     1      -2.043   0.095   0.113  1.00  0.00     0.070 A 
HETATM    5  N   LIG     1      -3.428   0.318   0.395  1.00  0.00    -0.101 NA
HETATM    6  C   LIG     1      -1.088   1.057   0.465  1.00  0.00     0.014 A 
HETATM    7  C   LIG     1       0.266   0.841   0.191  1.00  0.00     0.004 A 
ENDROOT
BRANCH   1   8
HETATM    8  C   LIG     1       2.125  -0.592  -0.743  1.00  0.00     0.173 C 
HETATM    9  C   LIG     1       3.191   0.402  -0.389  1.00  0.00     0.077 C 
HETATM   10  O   LIG     1       2.470  -1.663  -1.311  1.00  0.00    -0.291 OA
ENDBRANCH   1   8
TORSDOF 1
