REMARK  1 active torsions:
REMARK  status: ('A' for Active; 'I' for Inactive)
REMARK    1  A    between atoms: C_5  and  C_6 
ROOT
HETATM    1  C   LIG     1      -2.891  -0.389   0.337  1.00  0.00     0.031 C 
HETATM    2  C   LIG     1      -1.422  -0.140   0.158  1.00  0.00    -0.022 A 
HETATM    3  C   LIG     1      -0.879   1.103   0.510  1.00  0.00    -0.004 A 
HETATM    4  C   LIG     1       0.488   1.347   0.347  1.00  0.00     0.006 A 
HETATM    5  C   LIG     1       1.338   0.350  -0.164  1.00  0.00     0.064 A 
HETATM    6  C   LIG     1       0.785  -0.892  -0.526  1.00  0.00     0.006 A 
HETATM    7  C   LIG     1      -0.582  -1.135  -0.363  1.00  0.00    -0.004 A 
ENDROOT
BRANCH   5   8
HETATM    8  C   LIG     1       2.785   0.626  -0.334  1.00  0.00     0.211 C 
HETATM    9  O   LIG     1       3.727  -0.401  -0.400  1.00  0.00    -0.644 OA
HETATM   10  O   LIG     1       3.190   1.817  -0.408  1.00  0.00    -0.644 OA
ENDBRANCH   5   8
TORSDOF 1
